<?xml version="1.0" encoding="UTF-8"?>

<!-- generated on 2024-07-11 15:38:11 by Eclipse SUMO netedit Version 1.20.0
<configuration xmlns:xsi="http://www.w3.org/2001/XMLSchema-instance" xsi:noNamespaceSchemaLocation="http://sumo.dlr.de/xsd/neteditConfiguration.xsd">

    <input>
        <sumocfg-file value="C:\Users\sioldead\OneDrive - McMaster University\Research\Python\NN\Data\ThesisMapFull\ThesisMapFull_Draft2.sumocfg"/>
        <sumo-net-file value="C:\Users\sioldead\OneDrive - McMaster University\Research\Python\NN\Data\ThesisMapFull\ThesisMapFull_Draft2.net.xml"/>
    </input>

    <output>
        <output-file value="C:\Users\sioldead\OneDrive - McMaster University\Research\Python\NN\Data\ThesisMapFull\ThesisMapFull_Draft2.net.xml"/>
    </output>

    <processing>
        <geometry.min-radius.fix.railways value="false"/>
        <geometry.max-grade.fix value="false"/>
        <offset.disable-normalization value="true"/>
        <lefthand value="0"/>
    </processing>

    <junctions>
        <no-turnarounds value="true"/>
        <junctions.corner-detail value="5"/>
        <junctions.limit-turn-speed value="5.50"/>
        <rectangular-lane-cut value="1"/>
    </junctions>

    <pedestrian>
        <walkingareas value="0"/>
    </pedestrian>

</configuration>
-->

<net version="1.20" junctionCornerDetail="5" rectangularLaneCut="true" limitTurnSpeed="5.50" xmlns:xsi="http://www.w3.org/2001/XMLSchema-instance" xsi:noNamespaceSchemaLocation="http://sumo.dlr.de/xsd/net_file.xsd">

    <location netOffset="1469.92,1500.53" convBoundary="0.00,0.00,3619.51,1600.18" origBoundary="-1469.92,-1500.53,2149.59,99.65" projParameter="!"/>

    <edge id=":100_0" function="internal">
        <lane id=":100_0_0" index="0" disallow="pedestrian tram rail_urban rail rail_electric rail_fast ship" speed="11.06" length="27.97" width="3.50" shape="1164.64,423.55 1163.58,415.74 1160.43,410.15 1155.18,406.80 1147.82,405.69">
            <param key="origId" value="105_1"/>
        </lane>
    </edge>
    <edge id=":100_1" function="internal">
        <lane id=":100_1_0" index="0" disallow="pedestrian tram rail_urban rail rail_electric rail_fast ship" speed="13.89" length="45.28" width="3.50" shape="1164.64,423.55 1164.62,378.28">
            <param key="origId" value="101_1"/>
        </lane>
        <lane id=":100_1_1" index="1" disallow="pedestrian tram rail_urban rail rail_electric rail_fast ship" speed="13.89" length="45.28" width="3.50" shape="1168.14,423.55 1168.12,378.26">
            <param key="origId" value="104_1"/>
        </lane>
    </edge>
    <edge id=":100_3" function="internal">
        <lane id=":100_3_0" index="0" disallow="pedestrian tram rail_urban rail rail_electric rail_fast ship" speed="13.00" length="6.37" width="3.50" shape="1168.14,423.55 1169.00,417.24">
            <param key="origId" value="108_1"/>
        </lane>
    </edge>
    <edge id=":100_16" function="internal">
        <lane id=":100_16_0" index="0" disallow="pedestrian tram rail_urban rail rail_electric rail_fast ship" speed="13.00" length="32.71" width="3.50" shape="1169.00,417.24 1169.61,412.69 1174.04,404.93 1181.43,400.28 1191.77,398.73">
            <param key="origId" value="108_1"/>
        </lane>
    </edge>
    <edge id=":100_4" function="internal">
        <lane id=":100_4_0" index="0" disallow="pedestrian tram rail_urban rail rail_electric rail_fast ship" speed="11.02" length="27.79" width="3.50" shape="1191.77,405.73 1184.49,406.84 1179.29,410.18 1176.18,415.75 1175.14,423.55">
            <param key="origId" value="107_1"/>
        </lane>
    </edge>
    <edge id=":100_5" function="internal">
        <lane id=":100_5_0" index="0" disallow="pedestrian tram rail_urban rail rail_electric rail_fast ship" speed="16.67" length="43.95" width="3.50" shape="1191.77,405.73 1147.82,405.69">
            <param key="origId" value="114_1"/>
        </lane>
        <lane id=":100_5_1" index="1" disallow="pedestrian tram rail_urban rail rail_electric rail_fast ship" speed="16.67" length="43.95" width="3.50" shape="1191.77,402.23 1147.82,402.19">
            <param key="origId" value="115_1"/>
        </lane>
    </edge>
    <edge id=":100_7" function="internal">
        <lane id=":100_7_0" index="0" disallow="pedestrian tram rail_urban rail rail_electric rail_fast ship" speed="12.91" length="6.00" width="3.50" shape="1191.77,402.23 1185.83,401.37">
            <param key="origId" value="111_1"/>
        </lane>
    </edge>
    <edge id=":100_17" function="internal">
        <lane id=":100_17_0" index="0" disallow="pedestrian tram rail_urban rail rail_electric rail_fast ship" speed="12.91" length="32.35" width="3.50" shape="1185.83,401.37 1181.48,400.73 1174.10,396.24 1169.65,388.75 1168.12,378.26">
            <param key="origId" value="111_1"/>
        </lane>
    </edge>
    <edge id=":100_8" function="internal">
        <lane id=":100_8_0" index="0" disallow="pedestrian tram rail_urban rail rail_electric rail_fast ship" speed="10.92" length="27.11" width="3.50" shape="1175.12,378.22 1176.20,385.66 1179.33,390.98 1184.52,394.17 1191.77,395.23">
            <param key="origId" value="112_1"/>
        </lane>
    </edge>
    <edge id=":100_9" function="internal">
        <lane id=":100_9_0" index="0" disallow="pedestrian tram rail_urban rail rail_electric rail_fast ship" speed="13.89" length="45.32" width="3.50" shape="1175.12,378.22 1175.14,423.55">
            <param key="origId" value="102_1"/>
        </lane>
        <lane id=":100_9_1" index="1" disallow="pedestrian tram rail_urban rail rail_electric rail_fast ship" speed="13.89" length="45.32" width="3.50" shape="1171.62,378.24 1171.64,423.55">
            <param key="origId" value="103_1"/>
        </lane>
    </edge>
    <edge id=":100_11" function="internal">
        <lane id=":100_11_0" index="0" disallow="pedestrian tram rail_urban rail rail_electric rail_fast ship" speed="12.89" length="6.31" width="3.50" shape="1171.62,378.24 1170.76,384.49">
            <param key="origId" value="109_1"/>
        </lane>
    </edge>
    <edge id=":100_18" function="internal">
        <lane id=":100_18_0" index="0" disallow="pedestrian tram rail_urban rail rail_electric rail_fast ship" speed="12.89" length="32.24" width="3.50" shape="1170.76,384.49 1170.19,388.72 1165.74,396.20 1158.29,400.69 1147.82,402.19">
            <param key="origId" value="109_1"/>
        </lane>
    </edge>
    <edge id=":100_12" function="internal">
        <lane id=":100_12_0" index="0" disallow="pedestrian tram rail_urban rail rail_electric rail_fast ship" speed="10.89" length="27.22" width="3.50" shape="1147.82,395.19 1155.21,394.13 1160.47,390.96 1163.61,385.68 1164.62,378.28">
            <param key="origId" value="110_-1"/>
        </lane>
    </edge>
    <edge id=":100_13" function="internal">
        <lane id=":100_13_0" index="0" disallow="pedestrian tram rail_urban rail rail_electric rail_fast ship" speed="16.67" length="43.95" width="3.50" shape="1147.82,395.19 1191.77,395.23">
            <param key="origId" value="116_-1"/>
        </lane>
        <lane id=":100_13_1" index="1" disallow="pedestrian tram rail_urban rail rail_electric rail_fast ship" speed="16.67" length="43.95" width="3.50" shape="1147.82,398.69 1191.77,398.73">
            <param key="origId" value="113_-1"/>
        </lane>
    </edge>
    <edge id=":100_15" function="internal">
        <lane id=":100_15_0" index="0" disallow="pedestrian tram rail_urban rail rail_electric rail_fast ship" speed="13.03" length="5.87" width="3.50" shape="1147.82,398.69 1153.63,399.55">
            <param key="origId" value="106_-1"/>
        </lane>
    </edge>
    <edge id=":100_19" function="internal">
        <lane id=":100_19_0" index="0" disallow="pedestrian tram rail_urban rail rail_electric rail_fast ship" speed="13.03" length="33.38" width="3.50" shape="1153.63,399.55 1158.24,400.24 1165.68,404.90 1170.15,412.67 1171.64,423.55">
            <param key="origId" value="106_-1"/>
        </lane>
    </edge>
    <edge id=":117_0" function="internal">
        <lane id=":117_0_0" index="0" disallow="pedestrian tram rail_urban rail rail_electric rail_fast ship" speed="10.91" length="27.19" width="3.50" shape="564.49,422.13 563.42,414.73 560.26,409.45 555.01,406.29 547.66,405.24"/>
    </edge>
    <edge id=":117_1" function="internal">
        <lane id=":117_1_0" index="0" disallow="pedestrian tram rail_urban rail rail_electric rail_fast ship" speed="16.67" length="43.86" width="3.50" shape="564.49,422.13 565.65,378.29"/>
    </edge>
    <edge id=":117_2" function="internal">
        <lane id=":117_2_0" index="0" disallow="pedestrian tram rail_urban rail rail_electric rail_fast ship" speed="12.88" length="38.38" width="3.50" shape="567.99,422.12 569.49,411.94 574.03,404.66 581.63,400.29 592.27,398.83"/>
    </edge>
    <edge id=":117_3" function="internal">
        <lane id=":117_3_0" index="0" disallow="pedestrian tram rail_urban rail rail_electric rail_fast ship" speed="10.88" length="27.08" width="3.50" shape="592.27,405.83 584.70,406.85 579.29,409.90 576.06,414.99 574.99,422.11"/>
    </edge>
    <edge id=":117_4" function="internal">
        <lane id=":117_4_0" index="0" disallow="pedestrian tram rail_urban rail rail_electric rail_fast ship" speed="16.67" length="44.62" width="3.50" shape="592.27,405.83 547.66,405.24"/>
        <lane id=":117_4_1" index="1" disallow="pedestrian tram rail_urban rail rail_electric rail_fast ship" speed="16.67" length="44.62" width="3.50" shape="592.27,402.33 547.65,401.74"/>
    </edge>
    <edge id=":117_6" function="internal">
        <lane id=":117_6_0" index="0" disallow="pedestrian tram rail_urban rail rail_electric rail_fast ship" speed="13.30" length="7.44" width="3.50" shape="592.27,402.33 584.89,401.38"/>
    </edge>
    <edge id=":117_15" function="internal">
        <lane id=":117_15_0" index="0" disallow="pedestrian tram rail_urban rail rail_electric rail_fast ship" speed="13.30" length="33.40" width="3.50" shape="584.89,401.38 580.66,400.83 572.35,396.32 567.35,388.81 565.65,378.29"/>
    </edge>
    <edge id=":117_7" function="internal">
        <lane id=":117_7_0" index="0" disallow="pedestrian tram rail_urban rail rail_electric rail_fast ship" speed="11.38" length="29.59" width="3.50" shape="572.65,378.26 573.90,385.73 577.59,391.06 583.71,394.26 592.27,395.33"/>
    </edge>
    <edge id=":117_8" function="internal">
        <lane id=":117_8_0" index="0" disallow="pedestrian tram rail_urban rail rail_electric rail_fast ship" speed="16.67" length="43.91" width="3.50" shape="572.65,378.26 574.99,422.11"/>
        <lane id=":117_8_1" index="1" disallow="pedestrian tram rail_urban rail rail_electric rail_fast ship" speed="16.67" length="43.91" width="3.50" shape="569.15,378.27 571.49,422.12"/>
    </edge>
    <edge id=":117_10" function="internal">
        <lane id=":117_10_0" index="0" disallow="pedestrian tram rail_urban rail rail_electric rail_fast ship" speed="12.53" length="36.29" width="3.50" shape="569.15,378.27 567.84,388.53 563.82,395.86 557.09,400.26 547.65,401.74"/>
    </edge>
    <edge id=":117_11" function="internal">
        <lane id=":117_11_0" index="0" disallow="pedestrian tram rail_urban rail rail_electric rail_fast ship" speed="11.02" length="27.81" width="3.50" shape="547.64,394.74 555.54,393.70 561.18,390.61 564.55,385.47 565.65,378.29"/>
    </edge>
    <edge id=":117_12" function="internal">
        <lane id=":117_12_0" index="0" disallow="pedestrian tram rail_urban rail rail_electric rail_fast ship" speed="16.67" length="44.63" width="3.50" shape="547.64,394.74 592.27,395.33"/>
        <lane id=":117_12_1" index="1" disallow="pedestrian tram rail_urban rail rail_electric rail_fast ship" speed="16.67" length="44.63" width="3.50" shape="547.65,398.24 592.27,398.83"/>
    </edge>
    <edge id=":117_14" function="internal">
        <lane id=":117_14_0" index="0" disallow="pedestrian tram rail_urban rail rail_electric rail_fast ship" speed="12.91" length="6.72" width="3.50" shape="547.65,398.24 554.30,399.19"/>
    </edge>
    <edge id=":117_16" function="internal">
        <lane id=":117_16_0" index="0" disallow="pedestrian tram rail_urban rail rail_electric rail_fast ship" speed="12.91" length="31.75" width="3.50" shape="554.30,399.19 558.06,399.72 565.50,404.19 569.98,411.66 571.49,422.12"/>
    </edge>
    <edge id=":133_0" function="internal">
        <lane id=":133_0_0" index="0" disallow="pedestrian tram rail_urban rail rail_electric rail_fast ship" speed="13.47" length="29.53" width="3.50" shape="2084.05,404.86 2074.35,409.38 2067.43,413.83 2063.27,418.22 2061.88,422.55">
            <param key="origId" value="135_1"/>
        </lane>
    </edge>
    <edge id=":133_1" function="internal">
        <lane id=":133_1_0" index="0" disallow="pedestrian tram rail_urban rail rail_electric rail_fast ship" speed="16.67" length="46.14" width="3.50" shape="2084.05,404.86 2073.05,407.42 2061.25,407.50 2049.24,406.51 2037.61,405.86">
            <param key="origId" value="138_1"/>
        </lane>
        <lane id=":133_1_1" index="1" disallow="pedestrian tram rail_urban rail rail_electric rail_fast ship" speed="16.67" length="46.14" width="3.50" shape="2082.72,401.62 2071.93,404.14 2060.59,404.13 2049.04,403.05 2037.61,402.36">
            <param key="origId" value="141_1"/>
        </lane>
    </edge>
    <edge id=":133_3" function="internal">
        <lane id=":133_3_0" index="0" disallow="pedestrian tram rail_urban rail rail_electric rail_fast ship" speed="16.67" length="43.50" width="3.50" shape="2037.61,395.36 2048.62,396.13 2059.26,397.39 2069.69,397.58 2080.07,395.14">
            <param key="origId" value="139_-1"/>
        </lane>
        <lane id=":133_3_1" index="1" disallow="pedestrian tram rail_urban rail rail_electric rail_fast ship" speed="16.67" length="43.50" width="3.50" shape="2037.61,398.86 2048.83,399.59 2059.92,400.76 2070.81,400.86 2081.40,398.38">
            <param key="origId" value="140_-1"/>
        </lane>
    </edge>
    <edge id=":133_5" function="internal">
        <lane id=":133_5_0" index="0" disallow="pedestrian tram rail_urban rail rail_electric rail_fast ship" speed="12.93" length="10.59" width="3.50" shape="2037.61,398.86 2048.09,400.32">
            <param key="origId" value="136_-1"/>
        </lane>
    </edge>
    <edge id=":133_8" function="internal">
        <lane id=":133_8_0" index="0" disallow="pedestrian tram rail_urban rail rail_electric rail_fast ship" speed="12.93" length="28.09" width="3.50" shape="2048.09,400.32 2048.23,400.34 2055.82,404.78 2060.37,412.19 2061.88,422.55">
            <param key="origId" value="136_-1"/>
        </lane>
    </edge>
    <edge id=":133_6" function="internal">
        <lane id=":133_6_0" index="0" disallow="pedestrian tram rail_urban rail rail_electric rail_fast ship" speed="11.49" length="30.28" width="3.50" shape="2058.38,422.55 2057.08,415.25 2053.19,410.03 2046.70,406.90 2037.61,405.86">
            <param key="origId" value="137_-1"/>
        </lane>
    </edge>
    <edge id=":133_7" function="internal">
        <lane id=":133_7_0" index="0" disallow="pedestrian tram rail_urban rail rail_electric rail_fast ship" speed="14.70" length="35.32" width="3.50" shape="2058.38,422.55 2059.82,415.52 2064.14,409.15 2071.33,403.43 2081.40,398.38">
            <param key="origId" value="134_-1"/>
        </lane>
    </edge>
    <edge id=":142_0" function="internal">
        <lane id=":142_0_0" index="0" disallow="pedestrian tram rail_urban rail rail_electric rail_fast ship" speed="11.80" length="30.97" width="3.50" shape="2273.64,350.05 2268.78,341.97 2263.12,337.09 2256.67,335.42 2249.42,336.96">
            <param key="origId" value="151_1"/>
        </lane>
    </edge>
    <edge id=":142_1" function="internal">
        <lane id=":142_1_0" index="0" disallow="pedestrian tram rail_urban rail rail_electric rail_fast ship" speed="14.47" length="37.12" width="3.50" shape="2273.64,350.05 2268.99,338.09 2267.05,328.26 2267.83,320.58 2271.34,315.04">
            <param key="origId" value="144_1"/>
        </lane>
        <lane id=":142_1_1" index="1" disallow="pedestrian tram rail_urban rail rail_electric rail_fast ship" speed="13.61" length="32.76" width="3.50" shape="2276.82,348.58 2272.52,337.74 2270.56,328.97 2270.96,322.26 2273.71,317.62">
            <param key="origId" value="145_1"/>
        </lane>
    </edge>
    <edge id=":142_3" function="internal">
        <lane id=":142_3_0" index="0" disallow="pedestrian tram rail_urban rail rail_electric rail_fast ship" speed="11.74" length="24.16" width="3.50" shape="2278.44,322.78 2277.21,325.61 2277.58,330.37 2279.57,337.05 2283.18,345.65">
            <param key="origId" value="143_-1"/>
        </lane>
    </edge>
    <edge id=":142_4" function="internal">
        <lane id=":142_4_0" index="0" disallow="pedestrian tram rail_urban rail rail_electric rail_fast ship" speed="16.67" length="32.02" width="3.50" shape="2278.44,322.78 2271.20,328.47 2264.99,331.54 2258.26,333.76 2249.42,336.96">
            <param key="origId" value="148_-1"/>
        </lane>
        <lane id=":142_4_1" index="1" disallow="pedestrian tram rail_urban rail rail_electric rail_fast ship" speed="16.67" length="32.02" width="3.50" shape="2276.07,320.20 2268.99,325.79 2263.15,328.63 2256.77,330.63 2248.09,333.72">
            <param key="origId" value="147_-1"/>
        </lane>
    </edge>
    <edge id=":142_6" function="internal">
        <lane id=":142_6_0" index="0" disallow="pedestrian tram rail_urban rail rail_electric rail_fast ship" speed="16.67" length="29.59" width="3.50" shape="2245.44,327.24 2253.59,324.41 2259.40,322.74 2264.71,320.27 2271.34,315.04">
            <param key="origId" value="149_-1"/>
        </lane>
        <lane id=":142_6_1" index="1" disallow="pedestrian tram rail_urban rail rail_electric rail_fast ship" speed="16.67" length="29.59" width="3.50" shape="2246.77,330.48 2255.25,327.50 2261.29,325.71 2266.80,323.09 2273.71,317.62">
            <param key="origId" value="146_-1"/>
        </lane>
    </edge>
    <edge id=":142_8" function="internal">
        <lane id=":142_8_0" index="0" disallow="pedestrian tram rail_urban rail rail_electric rail_fast ship" speed="13.67" length="7.01" width="3.50" shape="2246.77,330.48 2253.61,328.95">
            <param key="origId" value="150_-1"/>
        </lane>
    </edge>
    <edge id=":142_9" function="internal">
        <lane id=":142_9_0" index="0" disallow="pedestrian tram rail_urban rail rail_electric rail_fast ship" speed="13.67" length="34.88" width="3.50" shape="2253.61,328.95 2256.90,328.21 2265.82,330.23 2273.52,336.53 2280.00,347.12">
            <param key="origId" value="150_-1"/>
        </lane>
    </edge>
    <edge id=":152_0" function="internal">
        <lane id=":152_0_0" index="0" disallow="pedestrian tram rail_urban rail rail_electric rail_fast ship" speed="15.28" length="43.88" width="3.50" shape="2392.36,284.49 2381.31,284.16 2370.54,283.77 2359.87,284.11 2349.11,285.98">
            <param key="origId" value="156_-1"/>
        </lane>
        <lane id=":152_0_1" index="1" disallow="pedestrian tram rail_urban rail rail_electric rail_fast ship" speed="15.28" length="43.88" width="3.50" shape="2392.37,280.99 2381.18,280.68 2370.10,280.33 2359.12,280.71 2348.21,282.60">
            <param key="origId" value="153_-1"/>
        </lane>
    </edge>
    <edge id=":152_2" function="internal">
        <lane id=":152_2_0" index="0" disallow="pedestrian tram rail_urban rail rail_electric rail_fast ship" speed="12.94" length="8.48" width="3.50" shape="2392.37,280.99 2383.95,279.92">
            <param key="origId" value="157_-1"/>
        </lane>
    </edge>
    <edge id=":152_8" function="internal">
        <lane id=":152_8_0" index="0" disallow="pedestrian tram rail_urban rail rail_electric rail_fast ship" speed="12.94" length="30.09" width="3.50" shape="2383.95,279.92 2381.21,279.57 2373.23,275.38 2368.43,268.43 2366.81,258.70">
            <param key="origId" value="157_-1"/>
        </lane>
    </edge>
    <edge id=":152_3" function="internal">
        <lane id=":152_3_0" index="0" disallow="pedestrian tram rail_urban rail rail_electric rail_fast ship" speed="10.96" length="27.34" width="3.50" shape="2373.81,258.69 2374.99,265.36 2378.47,270.14 2384.27,273.01 2392.38,273.99">
            <param key="origId" value="158_1"/>
        </lane>
    </edge>
    <edge id=":152_4" function="internal">
        <lane id=":152_4_0" index="0" disallow="pedestrian tram rail_urban rail rail_electric rail_fast ship" speed="13.77" length="35.29" width="3.50" shape="2370.31,258.70 2368.95,266.94 2364.81,273.67 2357.90,278.89 2348.21,282.60">
            <param key="origId" value="159_1"/>
        </lane>
    </edge>
    <edge id=":152_5" function="internal">
        <lane id=":152_5_0" index="0" disallow="pedestrian tram rail_urban rail rail_electric rail_fast ship" speed="12.42" length="28.57" width="3.50" shape="2346.41,275.84 2355.34,272.72 2361.72,268.83 2365.55,264.16 2366.81,258.70">
            <param key="origId" value="160_1"/>
        </lane>
    </edge>
    <edge id=":152_6" function="internal">
        <lane id=":152_6_0" index="0" disallow="pedestrian tram rail_urban rail rail_electric rail_fast ship" speed="15.28" length="45.70" width="3.50" shape="2346.41,275.84 2357.60,273.91 2369.21,273.45 2380.91,273.72 2392.38,273.99">
            <param key="origId" value="154_1"/>
        </lane>
        <lane id=":152_6_1" index="1" disallow="pedestrian tram rail_urban rail rail_electric rail_fast ship" speed="15.28" length="45.70" width="3.50" shape="2347.31,279.22 2358.36,277.31 2369.65,276.89 2381.04,277.20 2392.37,277.49">
            <param key="origId" value="155_1"/>
        </lane>
    </edge>
    <edge id=":26_0" function="internal">
        <lane id=":26_0_0" index="0" disallow="pedestrian tram rail_urban rail rail_electric rail_fast ship" speed="10.88" length="26.92" width="3.50" shape="191.82,405.78 184.69,406.86 179.58,410.06 176.50,415.39 175.45,422.84">
            <param key="origId" value="40_1"/>
        </lane>
    </edge>
    <edge id=":26_1" function="internal">
        <lane id=":26_1_0" index="0" disallow="pedestrian tram rail_urban rail rail_electric rail_fast ship" speed="16.67" length="44.37" width="3.50" shape="191.82,405.78 147.45,405.99">
            <param key="origId" value="29_1"/>
        </lane>
        <lane id=":26_1_1" index="1" disallow="pedestrian tram rail_urban rail rail_electric rail_fast ship" speed="16.67" length="44.37" width="3.50" shape="191.81,402.28 147.44,402.49">
            <param key="origId" value="32_1"/>
        </lane>
    </edge>
    <edge id=":26_3" function="internal">
        <lane id=":26_3_0" index="0" disallow="pedestrian tram rail_urban rail rail_electric rail_fast ship" speed="12.90" length="5.93" width="3.50" shape="191.81,402.28 185.94,401.45">
            <param key="origId" value="36_1"/>
        </lane>
    </edge>
    <edge id=":26_15" function="internal">
        <lane id=":26_15_0" index="0" disallow="pedestrian tram rail_urban rail rail_electric rail_fast ship" speed="12.90" length="32.56" width="3.50" shape="185.94,401.45 181.38,400.80 173.92,396.33 169.45,388.87 167.95,378.42">
            <param key="origId" value="36_1"/>
        </lane>
    </edge>
    <edge id=":26_4" function="internal">
        <lane id=":26_4_0" index="0" disallow="pedestrian tram rail_urban rail rail_electric rail_fast ship" speed="10.91" length="27.19" width="3.50" shape="174.95,378.42 176.01,385.80 179.17,391.08 184.43,394.24 191.80,395.28">
            <param key="origId" value="35_1"/>
        </lane>
    </edge>
    <edge id=":26_5" function="internal">
        <lane id=":26_5_0" index="0" disallow="pedestrian tram rail_urban rail rail_electric rail_fast ship" speed="13.89" length="44.42" width="3.50" shape="174.95,378.42 175.45,422.84">
            <param key="origId" value="37_1"/>
        </lane>
        <lane id=":26_5_1" index="1" disallow="pedestrian tram rail_urban rail rail_electric rail_fast ship" speed="13.89" length="44.42" width="3.50" shape="171.45,378.42 171.95,422.83">
            <param key="origId" value="39_1"/>
        </lane>
    </edge>
    <edge id=":26_7" function="internal">
        <lane id=":26_7_0" index="0" disallow="pedestrian tram rail_urban rail rail_electric rail_fast ship" speed="12.95" length="38.76" width="3.50" shape="171.45,378.42 169.96,388.93 165.46,396.45 157.95,400.97 147.44,402.49">
            <param key="origId" value="28_1"/>
        </lane>
    </edge>
    <edge id=":26_8" function="internal">
        <lane id=":26_8_0" index="0" disallow="pedestrian tram rail_urban rail rail_electric rail_fast ship" speed="11.51" length="30.35" width="3.50" shape="147.43,395.49 156.41,394.41 162.83,391.20 166.67,385.87 167.95,378.42">
            <param key="origId" value="27_1"/>
        </lane>
    </edge>
    <edge id=":26_9" function="internal">
        <lane id=":26_9_0" index="0" disallow="pedestrian tram rail_urban rail rail_electric rail_fast ship" speed="16.67" length="44.37" width="3.50" shape="147.43,395.49 191.80,395.28">
            <param key="origId" value="31_1"/>
        </lane>
        <lane id=":26_9_1" index="1" disallow="pedestrian tram rail_urban rail rail_electric rail_fast ship" speed="16.67" length="44.37" width="3.50" shape="147.44,398.99 191.81,398.78">
            <param key="origId" value="30_1"/>
        </lane>
    </edge>
    <edge id=":26_11" function="internal">
        <lane id=":26_11_0" index="0" disallow="pedestrian tram rail_urban rail rail_electric rail_fast ship" speed="12.96" length="6.12" width="3.50" shape="147.44,398.99 153.50,399.82">
            <param key="origId" value="34_1"/>
        </lane>
    </edge>
    <edge id=":26_16" function="internal">
        <lane id=":26_16_0" index="0" disallow="pedestrian tram rail_urban rail rail_electric rail_fast ship" speed="12.96" length="32.92" width="3.50" shape="153.50,399.82 158.20,400.46 165.88,404.93 170.46,412.38 171.95,422.83">
            <param key="origId" value="34_1"/>
        </lane>
    </edge>
    <edge id=":26_12" function="internal">
        <lane id=":26_12_0" index="0" disallow="pedestrian tram rail_urban rail rail_electric rail_fast ship" speed="10.98" length="27.71" width="3.50" shape="164.95,422.80 163.89,415.43 160.61,410.18 155.14,407.03 147.45,405.99">
            <param key="origId" value="33_1"/>
        </lane>
    </edge>
    <edge id=":26_13" function="internal">
        <lane id=":26_13_0" index="0" disallow="pedestrian tram rail_urban rail rail_electric rail_fast ship" speed="13.89" length="44.48" width="3.50" shape="164.95,422.80 167.95,378.42">
            <param key="origId" value="38_1"/>
        </lane>
    </edge>
    <edge id=":26_14" function="internal">
        <lane id=":26_14_0" index="0" disallow="pedestrian tram rail_urban rail rail_electric rail_fast ship" speed="12.88" length="38.16" width="3.50" shape="168.45,422.81 169.95,412.31 174.35,404.81 181.63,400.30 191.81,398.78">
            <param key="origId" value="41_1"/>
        </lane>
    </edge>
    <edge id=":42_0" function="internal">
        <lane id=":42_0_0" index="0" disallow="pedestrian tram rail_urban rail rail_electric rail_fast ship" speed="16.67" length="45.57" width="3.50" shape="3472.37,282.68 3426.79,282.33">
            <param key="origId" value="47_1"/>
        </lane>
        <lane id=":42_0_1" index="1" disallow="pedestrian tram rail_urban rail rail_electric rail_fast ship" speed="16.67" length="45.57" width="3.50" shape="3472.34,279.18 3426.78,278.83">
            <param key="origId" value="49_1"/>
        </lane>
    </edge>
    <edge id=":42_2" function="internal">
        <lane id=":42_2_0" index="0" disallow="pedestrian tram rail_urban rail rail_electric rail_fast ship" speed="13.22" length="6.30" width="3.50" shape="3472.34,279.18 3466.11,278.27">
            <param key="origId" value="46_1"/>
        </lane>
    </edge>
    <edge id=":42_8" function="internal">
        <lane id=":42_8_0" index="0" disallow="pedestrian tram rail_urban rail rail_electric rail_fast ship" speed="13.22" length="34.62" width="3.50" shape="3466.11,278.27 3461.56,277.61 3453.89,272.74 3449.33,264.56 3447.88,253.09">
            <param key="origId" value="46_1"/>
        </lane>
    </edge>
    <edge id=":42_3" function="internal">
        <lane id=":42_3_0" index="0" disallow="pedestrian tram rail_urban rail rail_electric rail_fast ship" speed="11.29" length="29.51" width="3.50" shape="3454.88,253.14 3455.91,261.52 3459.15,267.48 3464.62,271.04 3472.29,272.18">
            <param key="origId" value="45_1"/>
        </lane>
    </edge>
    <edge id=":42_4" function="internal">
        <lane id=":42_4_0" index="0" disallow="pedestrian tram rail_urban rail rail_electric rail_fast ship" speed="13.28" length="40.47" width="3.50" shape="3451.38,253.11 3449.76,264.33 3445.12,272.36 3437.46,277.19 3426.78,278.83">
            <param key="origId" value="43_1"/>
        </lane>
    </edge>
    <edge id=":42_5" function="internal">
        <lane id=":42_5_0" index="0" disallow="pedestrian tram rail_urban rail rail_electric rail_fast ship" speed="11.36" length="29.28" width="3.50" shape="3426.75,271.83 3434.41,270.63 3439.90,267.11 3443.22,261.25 3444.38,253.06">
            <param key="origId" value="44_-1"/>
        </lane>
    </edge>
    <edge id=":42_6" function="internal">
        <lane id=":42_6_0" index="0" disallow="pedestrian tram rail_urban rail rail_electric rail_fast ship" speed="16.67" length="45.55" width="3.50" shape="3426.75,271.83 3472.29,272.18">
            <param key="origId" value="50_-1"/>
        </lane>
        <lane id=":42_6_1" index="1" disallow="pedestrian tram rail_urban rail rail_electric rail_fast ship" speed="16.67" length="45.55" width="3.50" shape="3426.76,275.33 3472.32,275.68">
            <param key="origId" value="48_-1"/>
        </lane>