<?xml version="1.0" encoding="UTF-8"?>

<!-- generated on 2024-07-17 13:54:21 by Eclipse SUMO duarouter Version 1.20.0
<configuration xmlns:xsi="http://www.w3.org/2001/XMLSchema-instance" xsi:noNamespaceSchemaLocation="http://sumo.dlr.de/xsd/duarouterConfiguration.xsd">

    <input>
        <net-file value="ThesisMapFull_Draft2.net.xml"/>
        <route-files value="ThesisMapFull_Draft2_rand2.trips.xml"/>
    </input>

    <output>
        <output-file value="ThesisMapFull_Draft2_rand4.rou.xml"/>
    </output>

    <report>
        <ignore-errors value="true"/>
    </report>

</configuration>
-->

<routes xmlns:xsi="http://www.w3.org/2001/XMLSchema-instance" xsi:noNamespaceSchemaLocation="http://sumo.dlr.de/xsd/routes_file.xsd">
    <vehicle id="0" depart="0.00">
        <route edges="20 -3 -7 -1 -0"/>
    </vehicle>
    <vehicle id="1" depart="1.00">
        <route edges="-7 -16"/>
    </vehicle>
    <vehicle id="2" depart="2.00">
        <route edges="23 0 -8"/>
    </vehicle>
    <vehicle id="3" depart="3.00">
        <route edges="6 4 -11"/>
    </vehicle>
    <vehicle id="4" depart="4.00">
        <route edges="13 -6 2 16 -1"/>
    </vehicle>
    <vehicle id="5" depart="5.00">
        <route edges="-5 16 7 3 -25"/>
    </vehicle>
    <vehicle id="6" depart="6.00">
        <route edges="-0 -5 -2 6 4 -15"/>
    </vehicle>
    <vehicle id="7" depart="7.00">
        <route edges="20 -3"/>
    </vehicle>
    <vehicle id="8" depart="8.00">
        <route edges="-5"/>
    </vehicle>
    <vehicle id="11" depart="11.00">
        <route edges="10 6 -13"/>
    </vehicle>
    <vehicle id="12" depart="12.00">
        <route edges="8 1 -16 -2"/>
    </vehicle>
    <vehicle id="13" depart="13.00">
        <route edges="-16 -2 6 4 -11"/>
    </vehicle>
    <vehicle id="16" depart="16.00">
        <route edges="17 1 7"/>
    </vehicle>
    <vehicle id="20" depart="20.00">
        <route edges="22 -1"/>
    </vehicle>
    <vehicle id="21" depart="21.00">
        <route edges="-6 2 16 -1 -0 -5 -2 6 4 -15 -18"/>
    </vehicle>
    <vehicle id="23" depart="23.00">
        <route edges="-16 -2 6 4 -15 -18"/>
    </vehicle>
    <vehicle id="24" depart="24.00">
        <route edges="2 16 7 3 -20"/>
    </vehicle>
    <vehicle id="25" depart="25.00">
        <route edges="11 -15"/>
    </vehicle>
    <vehicle id="26" depart="26.00">
        <route edges="-7 -16 5"/>
    </vehicle>
    <vehicle id="27" depart="27.00">
        <route edges="20 -3 -7 -1 -0 -5"/>
    </vehicle>
    <vehicle id="28" depart="28.00">
        <route edges="-4 -6 2 5 0"/>
    </vehicle>
    <vehicle id="29" depart="29.00">
        <route edges="-3 -7 -1 -0 -5 16 7 3 -20"/>
    </vehicle>
    <vehicle id="30" depart="30.00">
        <route edges="9 -7"/>
    </vehicle>
    <vehicle id="31" depart="31.00">
        <route edges="18 15 -4 -6 2 16 -1 -8"/>
    </vehicle>
    <vehicle id="33" depart="33.00">
        <route edges="-6 2 16 -1"/>
    </vehicle>
    <vehicle id="34" depart="34.00">
        <route edges="1 -16 5 0 -17"/>
    </vehicle>
    <vehicle id="36" depart="36.00">
        <route edges="5 -19"/>
    </vehicle>
    <vehicle id="37" depart="37.00">
        <route edges="20 -3 -21"/>
    </vehicle>
    <vehicle id="39" depart="39.00">
        <route edges="-7 -16"/>
    </vehicle>
    <vehicle id="40" depart="40.00">
        <route edges="18 15 -4 -6 2 16 -1 -17"/>
    </vehicle>
    <vehicle id="41" depart="41.00">
        <route edges="19 -5 -2 6 4"/>
    </vehicle>
    <vehicle id="42" depart="42.00">
        <route edges="12 -3 -7 -16 -2 6 4 -15"/>
    </vehicle>
    <vehicle id="43" depart="43.00">
        <route edges="9 3 -25"/>
    </vehicle>
    <vehicle id="46" depart="46.00">
        <route edges="25 -3 -7 -22"/>
    </vehicle>
    <vehicle id="50" depart="50.00">
        <route edges="-0 -5 16 7 -9"/>
    </vehicle>
    <vehicle id="52" depart="52.00">
        <route edges="-7"/>
    </vehicle>
    <vehicle id="54" depart="54.00">
        <route edges="14 15 -4 -6 2 16 -1 -0 -5 -2 6"/>
    </vehicle>
    <vehicle id="55" depart="55.00">
        <route edges="5 0 -17"/>
    </vehicle>
    <vehicle id="56" depart="56.00">
        <route edges="16 -1 -0 -5 -2 6 4 -15 -14"/>
    </vehicle>
    <vehicle id="59" depart="59.00">
        <route edges="19 -5 -2 6 -13"/>
    </vehicle>
    <vehicle id="61" depart="61.00">
        <route edges="25 -3"/>
    </vehicle>
    <vehicle id="62" depart="62.00">
        <route edges="-0 -19"/>
    </vehicle>
    <vehicle id="65" depart="65.00">
        <route edges="1 -16 -2 -10"/>
    </vehicle>
    <vehicle id="66" depart="66.00">
        <route edges="5 0 1 -16 -2 6"/>
    </vehicle>
    <vehicle id="67" depart="67.00">
        <route edges="-16 -2 6 4 -24"/>
    </vehicle>
    <vehicle id="69" depart="69.00">
        <route edges="24 -4 -6 2 16 7 3 -12"/>
    </vehicle>
    <vehicle id="71" depart="71.00">
        <route edges="-7 -1 -0 -5 16 7 3"/>
    </vehicle>
    <vehicle id="72" depart="72.00">
        <route edges="13 4 -15"/>
    </vehicle>
    <vehicle id="73" depart="73.00">
        <route edges="17 1 -16 5 0"/>
    </vehicle>
    <vehicle id="74" depart="74.00">
        <route edges="-5 16 -1 -0 -19"/>
    </vehicle>
    <vehicle id="75" depart="75.00">
        <route edges="9 -7"/>
    </vehicle>
    <vehicle id="76" depart="76.00">
        <route edges="13 -6 2 16 7 3 -25"/>
    </vehicle>
    <vehicle id="78" depart="78.00">
        <route edges="10 2 16 -1 -0 -5"/>
    </vehicle>
    <vehicle id="79" depart="79.00">
        <route edges="-6 2 16 -1 -0 -5 -2 6 4 -15"/>
    </vehicle>
    <vehicle id="81" depart="81.00">
        <route edges="-6 2 16 -1 -0 -5 -2 6 4"/>
    </vehicle>
    <vehicle id="83" depart="83.00">
        <route edges="-6 2 16 -1 -8"/>
    </vehicle>
    <vehicle id="84" depart="84.00">
        <route edges="-5 16 7 3 -12"/>
    </vehicle>
    <vehicle id="86" depart="86.00">
        <route edges="15"/>
    </vehicle>
    <vehicle id="88" depart="88.00">
        <route edges="-16 5 0 1 -22"/>
    </vehicle>
    <vehicle id="89" depart="89.00">
        <route edges="13 -6 2 5 -23"/>
    </vehicle>
    <vehicle id="90" depart="90.00">
        <route edges="23 0 -8"/>
    </vehicle>
    <vehicle id="91" depart="91.00">
        <route edges="9 -7 -16 -2 6 4 -11"/>
    </vehicle>
    <vehicle id="92" depart="92.00">
        <route edges="12 -3 -7 -16 -2"/>
    </vehicle>
    <vehicle id="93" depart="93.00">
        <route edges="5 0 1 -16"/>
    </vehicle>
    <vehicle id="94" depart="94.00">
        <route edges="-4 -6 2 5 -23"/>
    </vehicle>
    <vehicle id="95" depart="95.00">
        <route edges="13 4 -15 -18"/>
    </vehicle>
    <vehicle id="96" depart="96.00">
        <route edges="-6 2 5"/>
    </vehicle>
    <vehicle id="97" depart="97.00">
        <route edges="13 -6 2 16 7 3"/>
    </vehicle>
    <vehicle id="98" depart="98.00">
        <route edges="17 -0 -5 16 -1"/>
    </vehicle>
    <vehicle id="100" depart="100.00">
        <route edges="8 1 -16 5"/>
    </vehicle>
    <vehicle id="102" depart="102.00">
        <route edges="15 -4 -6 2 16 -1 -0 -5 -2 6 4 -15"/>
    </vehicle>
    <vehicle id="103" depart="103.00">
        <route edges="12 -3 -7 -16 -2 -10"/>
    </vehicle>
    <vehicle id="104" depart="104.00">
        <route edges="11 -4 -6 2 16 7"/>
    </vehicle>
    <vehicle id="106" depart="106.00">
        <route edges="14 15 -4 -6 2 16 -22"/>
    </vehicle>
    <vehicle id="107" depart="107.00">
        <route edges="8 1 7"/>
    </vehicle>
    <vehicle id="108" depart="108.00">
        <route edges="18 15 -4 -6 2 16 7 -9"/>
    </vehicle>
    <vehicle id="109" depart="109.00">
        <route edges="-3 -7 -16 -2 6 4 -15 -18"/>
    </vehicle>
    <vehicle id="111" depart="111.00">
        <route edges="17 1 -16 5 0"/>
    </vehicle>
    <vehicle id="114" depart="114.00">
        <route edges="-3 -7 -16 -2 6"/>
    </vehicle>
    <vehicle id="115" depart="115.00">
        <route edges="-15 -14"/>
    </vehicle>
    <vehicle id="116" depart="116.00">
        <route edges="19 0 -8"/>
    </vehicle>
    <vehicle id="117" depart="117.00">
        <route edges="-6 2 16 7 3 -12"/>
    </vehicle>
    <vehicle id="120" depart="120.00">
        <route edges="13 -6 2 16 -1 -0 -5"/>
    </vehicle>
    <vehicle id="122" depart="122.00">
        <route edges="-5 16 7 -9"/>
    </vehicle>
    <vehicle id="123" depart="123.00">
        <route edges="-6 2 16 7 -21"/>
    </vehicle>
    <vehicle id="124" depart="124.00">
        <route edges="21 -7 -16 -2 6 4 -15 -18"/>
    </vehicle>
    <vehicle id="125" depart="125.00">
        <route edges="1"/>
    </vehicle>
    <vehicle id="127" depart="127.00">
        <route edges="9 -7 -1 -0 -5 16 7"/>
    </vehicle>
    <vehicle id="128" depart="128.00">
        <route edges="-15"/>
    </vehicle>
    <vehicle id="129" depart="129.00">
        <route edges="-7 -16 5"/>
    </vehicle>
    <vehicle id="130" depart="130.00">
        <route edges="5 0 1 7 3"/>
    </vehicle>
    <vehicle id="131" depart="131.00">
        <route edges="11 -4 -13"/>
    </vehicle>
    <vehicle id="133" depart="133.00">
        <route edges="2 16 7"/>
    </vehicle>
    <vehicle id="134" depart="134.00">
        <route edges="20 -3 -7 -1 -0"/>
    </vehicle>
    <vehicle id="136" depart="136.00">
        <route edges="20 -3 -7 -16 5"/>
    </vehicle>
    <vehicle id="139" depart="139.00">
        <route edges="-7 -1 -0 -5"/>
    </vehicle>
    <vehicle id="140" depart="140.00">
        <route edges="22 -16 -2 6 4 -15"/>
    </vehicle>
    <vehicle id="141" depart="141.00">
        <route edges="2 16 -1 -17"/>
    </vehicle>
    <vehicle id="142" depart="142.00">
        <route edges="15 -4 -6 2 16 -1 -0 -5 -2 6 4"/>
    </vehicle>
    <vehicle id="143" depart="143.00">
        <route edges="4 -11"/>
    </vehicle>
    <vehicle id="144" depart="144.00">
        <route edges="13 -6 2 16 -1 -17"/>
    </vehicle>
    <vehicle id="146" depart="146.00">
        <route edges="2 16 -1 -17"/>
    </vehicle>
    <vehicle id="148" depart="148.00">
        <route edges="13 -6 2 16 -1 -0"/>
    </vehicle>
    <vehicle id="152" depart="152.00">
        <route edges="-3 -7 -1 -0 -5 16 7 3 -12"/>
    </vehicle>
    <vehicle id="153" depart="153.00">
        <route edges="1 -16 -2 6 4"/>
    </vehicle>
    <vehicle id="155" depart="155.00">
        <route edges="6 4 -15"/>
    </vehicle>
    <vehicle id="156" depart="156.00">
        <route edges="-6 2 16 -1 -0 -5 -2 6 4 -11"/>
    </vehicle>
    <vehicle id="157" depart="157.00">
        <route edges="25 -3 -7 -1 -0 -5 16 7 3"/>
    </vehicle>
    <vehicle id="159" depart="159.00">
        <route edges="-3 -7 -16 5"/>
    </vehicle>
    <vehicle id="160" depart="160.00">
        <route edges="5 0 1 7"/>
    </vehicle>
    <vehicle id="161" depart="161.00">
        <route edges="3"/>
    </vehicle>
    <vehicle id="163" depart="163.00">
        <route edges="1 -16 5"/>
    </vehicle>
    <vehicle id="164" depart="164.00">
        <route edges="25 -3 -7 -1 -0 -5 16 7 3"/>
    </vehicle>
    <vehicle id="166" depart="166.00">
        <route edges="25 -3 -7 -16 -2 6 4 -11"/>
    </vehicle>
    <vehicle id="168" depart="168.00">
        <route edges="-6 2 16"/>
    </vehicle>
    <vehicle id="169" depart="169.00">
        <route edges="14 -18"/>
    </vehicle>
    <vehicle id="170" depart="170.00">
        <route edges="25 -3 -7 -16"/>
    </vehicle>
    <vehicle id="171" depart="171.00">
        <route edges="-0 -5 -2 6 4 -15 -14"/>
    </vehicle>
    <vehicle id="172" depart="172.00">
        <route edges="1 7 3"/>
    </vehicle>
    <vehicle id="173" depart="173.00">
        <route edges="8 1 -16 -2 6 4 -15 -18"/>
    </vehicle>
    <vehicle id="174" depart="174.00">
        <route edges="20 -3 -21"/>
    </vehicle>
    <vehicle id="176" depart="176.00">
        <route edges="7 3 -12"/>
    </vehicle>
    <vehicle id="177" depart="177.00">
        <route edges="8 1 -16 -2 6 4 -15 -14"/>
    </vehicle>
    <vehicle id="178" depart="178.00">
        <route edges="8 -17"/>
    </vehicle>
    <vehicle id="179" depart="179.00">
        <route edges="-16 5 0 1 -22"/>
    </vehicle>
    <vehicle id="180" depart="180.00">
        <route edges="23 -19"/>
    </vehicle>
    <vehicle id="181" depart="181.00">
        <route edges="19 -5 16 7 3 -25"/>
    </vehicle>
    <vehicle id="182" depart="182.00">
        <route edges="11 -4"/>
    </vehicle>
    <vehicle id="183" depart="183.00">
        <route edges="-7 -1 -0 -5 16 7 -9"/>
    </vehicle>
    <vehicle id="185" depart="185.00">
        <route edges="17 1 7 -9"/>
    </vehicle>
    <vehicle id="186" depart="186.00">
        <route edges="23 0 -8"/>
    </vehicle>
    <vehicle id="187" depart="187.00">
        <route edges="11 -4 -6 -10"/>
    </vehicle>
    <vehicle id="188" depart="188.00">
        <route edges="20 -3 -7 -16 5 -19"/>
    </vehicle>
    <vehicle id="190" depart="190.00">
        <route edges="22 -16 -2 6 4 -15 -18"/>
    </vehicle>
    <vehicle id="191" depart="191.00">
        <route edges="1 7 -21"/>
    </vehicle>
    <vehicle id="192" depart="192.00">
        <route edges="12 -3 -7 -16 -2 6 4 -15 -18"/>
    </vehicle>
    <vehicle id="197" depart="197.00">
        <route edges="-0 -5 -2 6 4 -15 -18"/>
    </vehicle>
    <vehicle id="199" depart="199.00">
        <route edges="20 -3 -7 -16 5 -23"/>
    </vehicle>
    <vehicle id="200" depart="200.00">
        <route edges="13 4 -15"/>
    </vehicle>
    <vehicle id="201" depart="201.00">
        <route edges="15 -4 -6 2 16 -1 -0 -5 -2 6 4"/>
    </vehicle>
    <vehicle id="202" depart="202.00">
        <route edges="25 -3 -7 -16 -2 6 4 -15 -14"/>
    </vehicle>
    <vehicle id="203" depart="203.00">
        <route edges="-16 5 0 1 7 3 -25"/>
    </vehicle>
    <vehicle id="204" depart="204.00">
        <route edges="2 16 -1 -0 -5 -2"/>
    </vehicle>
    <vehicle id="206" depart="206.00">
        <route edges="21 -7 -16"/>
    </vehicle>
    <vehicle id="207" depart="207.00">
        <route edges="-5 16 -1 -0"/>
    </vehicle>
    <vehicle id="208" depart="208.00">
        <route edges="-6 2 16 -1 -0 -5 -2 6 4 -24"/>
    </vehicle>
    <vehicle id="211" depart="211.00">
        <route edges="-4 -6 2 16 7 -9"/>
    </vehicle>
    <vehicle id="212" depart="212.00">
        <route edges="15 -4 -6 2 5 0 1 -16"/>
    </vehicle>
    <vehicle id="213" depart="213.00">
        <route edges="20 -3 -7 -1 -0"/>
    </vehicle>
    <vehicle id="214" depart="214.00">
        <route edges="24 -4 -6 2 5 0 1"/>
    </vehicle>
    <vehicle id="215" depart="215.00">
        <route edges="-16 5 0 1 -22"/>
    </vehicle>
    <vehicle id="216" depart="216.00">
        <route edges="-4 -6 2 16 -1 -0 -5 -2 6"/>
    </vehicle>
    <vehicle id="217" depart="217.00">
        <route edges="16 -1"/>
    </vehicle>
    <vehicle id="218" depart="218.00">
        <route edges="-6 2"/>
    </vehicle>
    <vehicle id="219" depart="219.00">
        <route edges="14 15"/>
    </vehicle>
    <vehicle id="220" depart="220.00">
        <route edges="21 -7 -1 -0 -5 16 7"/>
    </vehicle>
    <vehicle id="221" depart="221.00">
        <route edges="19 -5 -2 6"/>
    </vehicle>
    <vehicle id="223" depart="223.00">
        <route edges="22 7 3 -25"/>
    </vehicle>
    <vehicle id="226" depart="226.00">
        <route edges="15 -4 -6 2 16 -1 -17"/>
    </vehicle>
    <vehicle id="227" depart="227.00">
        <route edges="-6"/>
    </vehicle>
    <vehicle id="228" depart="228.00">
        <route edges="24 -4 -6 2 16 7 3 -25"/>
    </vehicle>
    <vehicle id="229" depart="229.00">
        <route edges="2 16 -1 -17"/>
    </vehicle>
    <vehicle id="230" depart="230.00">
        <route edges="-15 -18"/>
    </vehicle>
    <vehicle id="231" depart="231.00">
        <route edges="-7 -16 5 -19"/>
    </vehicle>
    <vehicle id="232" depart="232.00">
        <route edges="17 1 7 3 -12"/>
    </vehicle>
    <vehicle id="233" depart="233.00">
        <route edges="-6 2 16 -1 -8"/>
    </vehicle>
    <vehicle id="234" depart="234.00">
        <route edges="22 -16 -2 -10"/>
    </vehicle>
    <vehicle id="235" depart="235.00">
        <route edges="12 -3"/>
    </vehicle>
    <vehicle id="236" depart="236.00">
        <route edges="12 -3 -7 -16 -2 6 4 -15"/>
    </vehicle>
    <vehicle id="237" depart="237.00">
        <route edges="13 4"/>
    </vehicle>
    <vehicle id="238" depart="238.00">
        <route edges="19 -5 16 7 -9"/>
    </vehicle>
    <vehicle id="240" depart="240.00">
        <route edges="11 -4 -6 2 16 -1 -0"/>
    </vehicle>
    <vehicle id="241" depart="241.00">
        <route edges="10 2 5 0 1"/>
    </vehicle>
    <vehicle id="243" depart="243.00">
        <route edges="13 -6 2 5 0"/>
    </vehicle>
    <vehicle id="244" depart="244.00">
        <route edges="17 -0 -5"/>
    </vehicle>
    <vehicle id="245" depart="245.00">
        <route edges="-5 -2 6 4 -15"/>
    </vehicle>
    <vehicle id="246" depart="246.00">
        <route edges="13 -6 2 16 -1"/>
    </vehicle>
    <vehicle id="247" depart="247.00">
        <route edges="10 2 16 -1 -8"/>
    </vehicle>
    <vehicle id="248" depart="248.00">
        <route edges="12 -3 -7 -16 -2 6 -13"/>
    </vehicle>
    <vehicle id="249" depart="249.00">
        <route edges="14 15 -4 -6 2 16 7 3 -12"/>
    </vehicle>
    <vehicle id="250" depart="250.00">
        <route edges="2 16 -1 -0"/>
    </vehicle>
    <vehicle id="254" depart="254.00">
        <route edges="-1 -0 -5 16 7 3 -20"/>
    </vehicle>
    <vehicle id="255" depart="255.00">
        <route edges="-5 16 -1 -0 -19"/>
    </vehicle>
    <vehicle id="256" depart="256.00">
        <route edges="24 -4 -6 2 16 7 3 -20"/>
    </vehicle>
    <vehicle id="257" depart="257.00">
        <route edges="24 -4 -6 2 16"/>
    </vehicle>
    <vehicle id="258" depart="258.00">
        <route edges="-7 -16 -2 -10"/>
    </vehicle>
    <vehicle id="260" depart="260.00">
        <route edges="9 -7 -16 -2"/>
    </vehicle>
    <vehicle id="262" depart="262.00">
        <route edges="20 -3 -7 -16 5 0 1"/>
    </vehicle>
    <vehicle id="263" depart="263.00">
        <route edges="8 1 -16 -2 6 4 -15"/>
    </vehicle>
    <vehicle id="264" depart="264.00">
        <route edges="-0 -5 -2 6 -13"/>
    </vehicle>
    <vehicle id="266" depart="266.00">
        <route edges="18 15 -4 -6 2 16 -1 -0 -5 -2 6 4 -15"/>
    </vehicle>
    <vehicle id="267" depart="267.00">
        <route edges="22 -16 5 0 1"/>
    </vehicle>
    <vehicle id="268" depart="268.00">
        <route edges="-4 -6 2 16 -1 -0 -5"/>
    </vehicle>
    <vehicle id="269" depart="269.00">
        <route edges="23 -5 16 7 3 -12"/>
    </vehicle>
    <vehicle id="272" depart="272.00">
        <route edges="1 -16 5 0 -8"/>
    </vehicle>
    <vehicle id="273" depart="273.00">
        <route edges="8 1 7 -21"/>
    </vehicle>
    <vehicle id="274" depart="274.00">
        <route edges="22 -16 -2 -10"/>
    </vehicle>
    <vehicle id="276" depart="276.00">
        <route edges="-16 5 0 1"/>
    </vehicle>
    <vehicle id="279" depart="279.00">
        <route edges="25 -3 -7 -16 -2"/>
    </vehicle>
    <vehicle id="280" depart="280.00">
        <route edges="13 -6 2 16 7 3 -20"/>
    </vehicle>
    <vehicle id="281" depart="281.00">
        <route edges="16 -1 -0 -5 -2"/>
    </vehicle>
    <vehicle id="283" depart="283.00">
        <route edges="-16 -2 6"/>
    </vehicle>
    <vehicle id="284" depart="284.00">
        <route edges="2 16"/>
    </vehicle>
    <vehicle id="285" depart="285.00">
        <route edges="22 -1 -0 -5 16 -22"/>
    </vehicle>
    <vehicle id="286" depart="286.00">
        <route edges="23 -5 -2 6"/>
    </vehicle>
    <vehicle id="287" depart="287.00">
        <route edges="-7 -1 -0 -5 16"/>
    </vehicle>
    <vehicle id="288" depart="288.00">
        <route edges="17 1 -16 -2 6 4 -24"/>
    </vehicle>
    <vehicle id="289" depart="289.00">
        <route edges="13 -6 2 5 0"/>
    </vehicle>
    <vehicle id="292" depart="292.00">
        <route edges="5 0 1 -16"/>
    </vehicle>
    <vehicle id="293" depart="293.00">
        <route edges="14 15 -4 -6 2 16 -1 -0 -5"/>
    </vehicle>
    <vehicle id="294" depart="294.00">
        <route edges="11 -4 -6 2 16 -1"/>
    </vehicle>
    <vehicle id="295" depart="295.00">
        <route edges="4 -15 -14"/>
    </vehicle>
    <vehicle id="297" depart="297.00">
        <route edges="10 2 16 7 3"/>
    </vehicle>
    <vehicle id="298" depart="298.00">
        <route edges="22 -1 -17"/>
    </vehicle>
    <vehicle id="299" depart="299.00">
        <route edges="-0 -5 -2 6"/>
    </vehicle>
    <vehicle id="300" depart="300.00">
        <route edges="-16 5 0 1 7 -9"/>
    </vehicle>
    <vehicle id="301" depart="301.00">
        <route edges="15 -4 -6 2 5 0 1"/>
    </vehicle>
    <vehicle id="302" depart="302.00">
        <route edges="21 -7"/>
    </vehicle>
    <vehicle id="303" depart="303.00">
        <route edges="15"/>
    </vehicle>
    <vehicle id="304" depart="304.00">
        <route edges="-16 -2 6 4 -15"/>
    </vehicle>
    <vehicle id="305" depart="305.00">
        <route edges="21 -7 -16 5 -19"/>
    </vehicle>
    <vehicle id="306" depart="306.00">
        <route edges="18 15 -24"/>
    </vehicle>
    <vehicle id="307" depart="307.00">
        <route edges="17 1 -22"/>
    </vehicle>
    <vehicle id="308" depart="308.00">
        <route edges="23 -19"/>
    </vehicle>
    <vehicle id="309" depart="309.00">
        <route edges="22 -1 -17"/>
    </vehicle>
    <vehicle id="310" depart="310.00">
        <route edges="-7 -1 -0 -5 16 7 3 -12"/>
    </vehicle>
    <vehicle id="311" depart="311.00">
        <route edges="-4 -6 2 16 7 3 -12"/>
    </vehicle>
    <vehicle id="312" depart="312.00">
        <route edges="17 1"/>
    </vehicle>
    <vehicle id="313" depart="313.00">
        <route edges="-4 -6 2 16 -1 -0 -5 -2 6 4 -15"/>
    </vehicle>
    <vehicle id="314" depart="314.00">
        <route edges="15 -4 -6 2 5 0"/>
    </vehicle>
    <vehicle id="315" depart="315.00">
        <route edges="9 3 -25"/>
    </vehicle>
    <vehicle id="316" depart="316.00">
        <route edges="0 1 -16 -2 6 4 -11"/>
    </vehicle>
    <vehicle id="317" depart="317.00">
        <route edges="-4 -6 2 5 0 1 -16"/>
    </vehicle>
    <vehicle id="318" depart="318.00">
        <route edges="-4 -6 2 16 -1 -0"/>
    </vehicle>
    <vehicle id="319" depart="319.00">
        <route edges="17 -0 -5 16 -1 -17"/>
    </vehicle>
    <vehicle id="321" depart="321.00">
        <route edges="22 7 3 -12"/>
    </vehicle>
    <vehicle id="322" depart="322.00">
        <route edges="5 0 1 -16 -2 6 4 -24"/>
    </vehicle>
    <vehicle id="324" depart="324.00">
        <route edges="14 15 -4 -6 2 16 -22"/>
    </vehicle>
    <vehicle id="325" depart="325.00">
        <route edges="-4 -6 2 16 -1"/>
    </vehicle>
    <vehicle id="329" depart="329.00">
        <route edges="-1 -0 -5 -2 6 -13"/>
    </vehicle>
    <vehicle id="330" depart="330.00">
        <route edges="18 15 -4 -6 2 16 -1 -0 -5 -2 6 4 -15 -18"/>
    </vehicle>
    <vehicle id="331" depart="331.00">
        <route edges="9 3 -12"/>
    </vehicle>
    <vehicle id="332" depart="332.00">
        <route edges="24 -4 -6 2 16 -1 -0 -5"/>
    </vehicle>
    <vehicle id="333" depart="333.00">
        <route edges="25 -3 -7 -16"/>
    </vehicle>
    <vehicle id="334" depart="334.00">
        <route edges="16 -1 -0 -23"/>
    </vehicle>
    <vehicle id="335" depart="335.00">
        <route edges="13 -6 2"/>
    </vehicle>
    <vehicle id="336" depart="336.00">
        <route edges="9 -7 -16 -2 6 4 -15 -18"/>
    </vehicle>
    <vehicle id="337" depart="337.00">
        <route edges="2 16 -1 -0 -5"/>
    </vehicle>
    <vehicle id="338" depart="338.00">
        <route edges="23 -5 -2 6"/>
    </vehicle>
    <vehicle id="339" depart="339.00">
        <route edges="-5 -2 6 4 -15"/>
    </vehicle>
    <vehicle id="340" depart="340.00">
        <route edges="20 -3 -7 -16 -2 6 -13"/>
    </vehicle>
    <vehicle id="341" depart="341.00">
        <route edges="-4 -6 -10"/>
    </vehicle>
    <vehicle id="342" depart="342.00">
        <route edges="-0 -23"/>
    </vehicle>
    <vehicle id="343" depart="343.00">
        <route edges="19 -5 -2 6 4 -15 -18"/>
    </vehicle>
    <vehicle id="344" depart="344.00">
        <route edges="-6 2 16 7 -9"/>
    </vehicle>
    <vehicle id="345" depart="345.00">
        <route edges="22 -16 5 -23"/>
    </vehicle>
    <vehicle id="346" depart="346.00">
        <route edges="21 -7 -16 5"/>
    </vehicle>
    <vehicle id="348" depart="348.00">
        <route edges="20 -3 -7 -16 5"/>
    </vehicle>
    <vehicle id="350" depart="350.00">
        <route edges="20 -3 -7 -16 -2 6 4"/>
    </vehicle>
    <vehicle id="352" depart="352.00">
        <route edges="-3 -7 -16 5 -19"/>
    </vehicle>
    <vehicle id="354" depart="354.00">
        <route edges="0 1 7 3 -12"/>
    </vehicle>
    <vehicle id="355" depart="355.00">
        <route edges="21 -9"/>
    </vehicle>
    <vehicle id="356" depart="356.00">
        <route edges="7 3 -25"/>
    </vehicle>
    <vehicle id="357" depart="357.00">
        <route edges="15 -4 -6 -10"/>
    </vehicle>
    <vehicle id="358" depart="358.00">
        <route edges="-1 -0 -5 16 -22"/>
    </vehicle>
    <vehicle id="359" depart="359.00">
        <route edges="1 -16 5 0 -17"/>
    </vehicle>
    <vehicle id="360" depart="360.00">
        <route edges="-16 -2 6"/>
    </vehicle>
    <vehicle id="362" depart="362.00">
        <route edges="8 1 7"/>
    </vehicle>
    <vehicle id="363" depart="363.00">
        <route edges="21 -7 -1 -17"/>
    </vehicle>
    <vehicle id="366" depart="366.00">
        <route edges="6 4 -15 -14"/>
    </vehicle>
    <vehicle id="368" depart="368.00">
        <route edges="15 -11"/>
    </vehicle>
    <vehicle id="369" depart="369.00">
        <route edges="10 2 5 -19"/>
    </vehicle>
    <vehicle id="371" depart="371.00">
        <route edges="1 -16 5 0 -8"/>
    </vehicle>
    <vehicle id="372" depart="372.00">
        <route edges="0 1 -16 -2 6"/>
    </vehicle>
    <vehicle id="374" depart="374.00">
        <route edges="14 15 -4 -6 2 5 -19"/>
    </vehicle>
    <vehicle id="375" depart="375.00">
        <route edges="1 -16 -2 6"/>
    </vehicle>
    <vehicle id="376" depart="376.00">
        <route edges="12 -25"/>
    </vehicle>
    <vehicle id="377" depart="377.00">
        <route edges="9 -7"/>
    </vehicle>
    <vehicle id="378" depart="378.00">
        <route edges="17 1 7 -21"/>
    </vehicle>
    <vehicle id="379" depart="379.00">
        <route edges="-4 -6 2 16 7 3 -20"/>
    </vehicle>
    <vehicle id="380" depart="380.00">
        <route edges="24 -4 -6"/>
    </vehicle>
    <vehicle id="381" depart="381.00">
        <route edges="24 -15"/>
    </vehicle>
    <vehicle id="382" depart="382.00">
        <route edges="17 1 -16 5"/>
    </vehicle>
    <vehicle id="383" depart="383.00">
        <route edges="13 -6 2 16 7 -9"/>
    </vehicle>
    <vehicle id="385" depart="385.00">
        <route edges="19 0 1 -16"/>
    </vehicle>
    <vehicle id="386" depart="386.00">
        <route edges="-3"/>
    </vehicle>
    <vehicle id="387" depart="387.00">
        <route edges="17 1 -16 -2 6 4 -11"/>
    </vehicle>
    <vehicle id="388" depart="388.00">
        <route edges="9 -7 -16 -2 6 4"/>
    </vehicle>
    <vehicle id="389" depart="389.00">
        <route edges="14 15 -4 -6 2 16 7 3 -12"/>
    </vehicle>
    <vehicle id="391" depart="391.00">
        <route edges="22 7 3 -25"/>
    </vehicle>
    <vehicle id="393" depart="393.00">
        <route edges="9 -7 -16"/>
    </vehicle>
    <vehicle id="394" depart="394.00">
        <route edges="17 1 7 3 -20"/>
    </vehicle>
    <vehicle id="395" depart="395.00">
        <route edges="7 3 -25"/>
    </vehicle>
    <vehicle id="396" depart="396.00">
        <route edges="5 0 1 7 3"/>
    </vehicle>
    <vehicle id="398" depart="398.00">
        <route edges="12 -3 -7 -16 5"/>
    </vehicle>
    <vehicle id="399" depart="399.00">
        <route edges="16"/>
    </vehicle>
    <vehicle id="400" depart="400.00">
        <route edges="0 1 -16 -2 6 4 -15 -18"/>
    </vehicle>
    <vehicle id="401" depart="401.00">
        <route edges="19 -5 16 7"/>
    </vehicle>
    <vehicle id="402" depart="402.00">
        <route edges="15 -4 -13"/>
    </vehicle>
    <vehicle id="403" depart="403.00">
        <route edges="17 1 -16 -2"/>
    </vehicle>
    <vehicle id="405" depart="405.00">
        <route edges="14 15 -4 -6 2 5 -19"/>
    </vehicle>
    <vehicle id="406" depart="406.00">
        <route edges="-4 -6 2 16 7 -9"/>
    </vehicle>
    <vehicle id="407" depart="407.00">
        <route edges="18 15 -4 -6 2 5 0 1 -16"/>
    </vehicle>
    <vehicle id="408" depart="408.00">
        <route edges="24 -4 -6 2 16 -1"/>
    </vehicle>
    <vehicle id="409" depart="409.00">
        <route edges="23 -5 16 7 -9"/>
    </vehicle>
    <vehicle id="410" depart="410.00">
        <route edges="3 -20"/>
    </vehicle>
    <vehicle id="411" depart="411.00">
        <route edges="20 -3 -7 -1 -0 -5 16"/>
    </vehicle>
    <vehicle id="412" depart="412.00">
        <route edges="9 -7 -16 -2 6 4 -24"/>
    </vehicle>
    <vehicle id="413" depart="413.00">
        <route edges="-1 -0 -5 16 7 3 -25"/>
    </vehicle>
    <vehicle id="414" depart="414.00">
        <route edges="19 -5 16 7 3"/>
    </vehicle>
    <vehicle id="415" depart="415.00">
        <route edges="5 0 1 -22"/>
    </vehicle>
    <vehicle id="416" depart="416.00">
        <route edges="16 -1 -0 -23"/>
    </vehicle>
    <vehicle id="417" depart="417.00">
        <route edges="23 -5 16 7 -21"/>
    </vehicle>
    <vehicle id="418" depart="418.00">
        <route edges="20 -3 -7 -16 -2 6 -13"/>
    </vehicle>
    <vehicle id="419" depart="419.00">
        <route edges="14 15 -4 -6 2 16 -1 -0 -5 -2 6"/>
    </vehicle>