<?xml version="1.0" encoding="UTF-8"?>

<!-- generated on 2024-07-11 15:39:32 by Eclipse SUMO duarouter Version 1.20.0
<configuration xmlns:xsi="http://www.w3.org/2001/XMLSchema-instance" xsi:noNamespaceSchemaLocation="http://sumo.dlr.de/xsd/duarouterConfiguration.xsd">

    <input>
        <net-file value="ThesisMapFull_Draft2.net.xml"/>
        <route-files value="ThesisMapFull_Draft2.trips.xml"/>
    </input>

    <output>
        <output-file value="ThesisMapFull_Draft2.rou.xml"/>
    </output>

    <report>
        <ignore-errors value="true"/>
    </report>

</configuration>
-->

<routes xmlns:xsi="http://www.w3.org/2001/XMLSchema-instance" xsi:noNamespaceSchemaLocation="http://sumo.dlr.de/xsd/routes_file.xsd">
    <flow id="main1" begin="0.00" end="3600.00" probability="0.04">
        <route edges="25 -3 -7 -16 -2 6 4 -15 -18"/>
    </flow>
    <flow id="main2" begin="0.00" end="3600.00" probability="0.04">
        <route edges="18 15 -4 -6 2 16 7 3 -25"/>
    </flow>
    <flow id="main3" begin="0.00" end="3600.00" probability="0.04">
        <route edges="8 1 7 3 -25"/>
    </flow>
    <flow id="main4" begin="0.00" end="3600.00" probability="0.04">
        <route edges="19 -5 16 7 3 -25"/>
    </flow>
    <flow id="main5" begin="0.00" end="3600.00" probability="0.04">
        <route edges="8 1 -16 -2 6 4 -15 -18"/>
    </flow>
    <flow id="main6" begin="0.00" end="3600.00" probability="0.04">
        <route edges="19 -5 -2 6 4 -15 -18"/>
    </flow>
    <vehicle id="4" depart="4.00">
        <route edges="10 6 -13" />
    </vehicle>
    <vehicle id="11" depart="11.00">
        <route edges="13 -6 2 16 -1" />
    </vehicle>
    <vehicle id="20" depart="20.00">
        <route edges="11 -4 -13" />
    </vehicle>
    <vehicle id="25" depart="25.00">
        <route edges="13 -6 2 16 7 3 -25" />
    </vehicle>
    <vehicle id="27" depart="27.00">
        <route edges="20 -3 -7 -1 -0" />
    </vehicle>
    <vehicle id="33" depart="33.00">
        <route edges="11 -15" />
    </vehicle>
    <vehicle id="40" depart="40.00">
        <route edges="20 -3 -7 -16 5" />
    </vehicle>
    <vehicle id="41" depart="41.00">
        <route edges="12 -3 -7 -16 -2 6 4 -15" />
    </vehicle>
    <vehicle id="50" depart="50.00">
        <route edges="14 15" />
    </vehicle>
    <vehicle id="55" depart="55.00">
        <route edges="10 2 16 -1 -0 -5" />
    </vehicle>
    <vehicle id="56" depart="56.00">
        <route edges="22 -1" />
    </vehicle>
    <vehicle id="61" depart="61.00">
        <route edges="13 4" />
    </vehicle>
    <vehicle id="72" depart="72.00">
        <route edges="9 -7 -16 -2 6 4 -11" />
    </vehicle>
    <vehicle id="74" depart="74.00">
        <route edges="12 -3" />
    </vehicle>
    <vehicle id="84" depart="84.00">
        <route edges="24 -4 -6 2 16 7 3 -25" />
    </vehicle>
    <vehicle id="89" depart="89.00">
        <route edges="21 -7 -16" />
    </vehicle>
    <vehicle id="93" depart="93.00">
        <route edges="12 -3 -7 -16 -2 -10" />
    </vehicle>
    <vehicle id="103" depart="103.00">
        <route edges="12 -3 -7 -16 -2 -10" />
    </vehicle>
    <vehicle id="104" depart="104.00">
        <route edges="11 -4 -6 2 16 7" />
    </vehicle>
    <vehicle id="106" depart="106.00">
        <route edges="14 15 -4 -6 2 16 -22" />
    </vehicle>
    <vehicle id="120" depart="120.00">
        <route edges="13 -6 2 16 -1 -0 -5" />
    </vehicle>
    <vehicle id="124" depart="124.00">
        <route edges="21 -7 -16 -2 6 4 -15 -18" />
    </vehicle>
    <vehicle id="127" depart="127.00">
        <route edges="9 -7 -1 -0 -5 16 7" />
    </vehicle>
    <vehicle id="131" depart="131.00">
        <route edges="11 -4 -13" />
    </vehicle>
    <vehicle id="134" depart="134.00">
        <route edges="20 -3 -7 -1 -0" />
    </vehicle>
    <vehicle id="136" depart="136.00">
        <route edges="20 -3 -7 -16 5" />
    </vehicle>
    <vehicle id="140" depart="140.00">
        <route edges="22 -16 -2 6 4 -15" />
    </vehicle>
    <vehicle id="144" depart="144.00">
        <route edges="13 -6 2 16 -1 -17" />
    </vehicle>
    <vehicle id="148" depart="148.00">
        <route edges="13 -6 2 16 -1 -0" />
    </vehicle>

    <trip id="ego_1" depart="150" color="0,3,255" from="25" to="-18" via="-3 -7 -1 -0 -5 -2 6 4 -15"/>
    <trip id="ego_2" depart="150" color="255,0,0" from="25" to="-18" via="-3 -7 -16 -2 6 4 -15"/>
    <trip id="ego_3" depart="150" color="0,255,0" from="19" to="-18" via="-5 -2 6 4 -15"/>

    <vehicle id="169" depart="169.00">
        <route edges="14 -18" />
    </vehicle>
    <vehicle id="174" depart="174.00">
        <route edges="20 -3 -21" />
    </vehicle>
    <vehicle id="182" depart="182.00">
        <route edges="11 -4" />
    </vehicle>
    <vehicle id="187" depart="187.00">
        <route edges="11 -4 -6 -10" />
    </vehicle>
    <vehicle id="188" depart="188.00">
        <route edges="20 -3 -7 -16 5 -19" />
    </vehicle>
    <vehicle id="190" depart="190.00">
        <route edges="22 -16 -2 6 4 -15 -18" />
    </vehicle>
    <vehicle id="192" depart="192.00">
        <route edges="12 -3 -7 -16 -2 6 4 -15 -18" />
    </vehicle>
    <vehicle id="199" depart="199.00">
        <route edges="20 -3 -7 -16 5 -23" />
    </vehicle>
    <vehicle id="200" depart="200.00">
        <route edges="13 4 -15" />
    </vehicle>
    <vehicle id="206" depart="206.00">
        <route edges="21 -7 -16" />
    </vehicle>
    <vehicle id="213" depart="213.00">
        <route edges="20 -3 -7 -1 -0" />
    </vehicle>
    <vehicle id="214" depart="214.00">
        <route edges="24 -4 -6 2 5 0 1" />
    </vehicle>
    <vehicle id="219" depart="219.00">
        <route edges="14 15" />
    </vehicle>
    <vehicle id="220" depart="220.00">
        <route edges="21 -7 -1 -0 -5 16 7" />
    </vehicle>
    <vehicle id="223" depart="223.00">
        <route edges="22 7 3 -25" />
    </vehicle>
    <vehicle id="228" depart="228.00">
        <route edges="24 -4 -6 2 16 7 3 -25" />
    </vehicle>
    <vehicle id="234" depart="234.00">
        <route edges="22 -16 -2 -10" />
    </vehicle>
    <vehicle id="235" depart="235.00">
        <route edges="12 -3" />
    </vehicle>
    <vehicle id="236" depart="236.00">
        <route edges="12 -3 -7 -16 -2 6 4 -15" />
    </vehicle>
    <vehicle id="237" depart="237.00">
        <route edges="13 4" />
    </vehicle>
    <vehicle id="240" depart="240.00">
        <route edges="11 -4 -6 2 16 -1 -0" />
    </vehicle>
    <vehicle id="241" depart="241.00">
        <route edges="10 2 5 0 1" />
    </vehicle>
    <vehicle id="243" depart="243.00">
        <route edges="13 -6 2 5 0" />
    </vehicle>
    <vehicle id="246" depart="246.00">
        <route edges="13 -6 2 16 -1" />
    </vehicle>
    <vehicle id="247" depart="247.00">
        <route edges="10 2 16 -1 -8" />
    </vehicle>
    <vehicle id="248" depart="248.00">
        <route edges="12 -3 -7 -16 -2 6 -13" />
    </vehicle>
    <vehicle id="249" depart="249.00">
        <route edges="14 15 -4 -6 2 16 7 3 -12" />
    </vehicle>
    <vehicle id="256" depart="256.00">
        <route edges="24 -4 -6 2 16 7 3 -20" />
    </vehicle>
    <vehicle id="257" depart="257.00">
        <route edges="24 -4 -6 2 16" />
    </vehicle>
    <vehicle id="260" depart="260.00">
        <route edges="9 -7 -16 -2" />
    </vehicle>
    <vehicle id="262" depart="262.00">
        <route edges="20 -3 -7 -16 5 0 1" />
    </vehicle>
    <vehicle id="267" depart="267.00">
        <route edges="22 -16 5 0 1" />
    </vehicle>
    <vehicle id="274" depart="274.00">
        <route edges="22 -16 -2 -10" />
    </vehicle>
    <vehicle id="280" depart="280.00">
        <route edges="13 -6 2 16 7 3 -20" />
    </vehicle>
    <vehicle id="285" depart="285.00">
        <route edges="22 -1 -0 -5 16 -22" />
    </vehicle>
    <vehicle id="289" depart="289.00">
        <route edges="13 -6 2 5 0" />
    </vehicle>
    <vehicle id="293" depart="293.00">
        <route edges="14 15 -4 -6 2 16 -1 -0 -5" />
    </vehicle>
    <vehicle id="294" depart="294.00">
        <route edges="11 -4 -6 2 16 -1" />
    </vehicle>
    <vehicle id="297" depart="297.00">
        <route edges="10 2 16 7 3" />
    </vehicle>
    <vehicle id="298" depart="298.00">
        <route edges="22 -1 -17" />
    </vehicle>
    <vehicle id="302" depart="302.00">
        <route edges="21 -7" />
    </vehicle>
    <vehicle id="305" depart="305.00">
        <route edges="21 -7 -16 5 -19" />
    </vehicle>
    <vehicle id="309" depart="309.00">
        <route edges="22 -1 -17" />
    </vehicle>
    <vehicle id="315" depart="315.00">
        <route edges="9 3 -25" />
    </vehicle>
    <vehicle id="321" depart="321.00">
        <route edges="22 7 3 -12" />
    </vehicle>
    <vehicle id="324" depart="324.00">
        <route edges="14 15 -4 -6 2 16 -22" />
    </vehicle>
    <vehicle id="331" depart="331.00">
        <route edges="9 3 -12" />
    </vehicle>
    <vehicle id="332" depart="332.00">
        <route edges="24 -4 -6 2 16 -1 -0 -5" />
    </vehicle>
    <vehicle id="335" depart="335.00">
        <route edges="13 -6 2" />
    </vehicle>
    <vehicle id="336" depart="336.00">
        <route edges="9 -7 -16 -2 6 4 -15 -18" />
    </vehicle>
    <vehicle id="340" depart="340.00">
        <route edges="20 -3 -7 -16 -2 6 -13" />
    </vehicle>
    <vehicle id="345" depart="345.00">
        <route edges="22 -16 5 -23" />
    </vehicle>
    <vehicle id="346" depart="346.00">
        <route edges="21 -7 -16 5" />
    </vehicle>
    <vehicle id="348" depart="348.00">
        <route edges="20 -3 -7 -16 5" />
    </vehicle>
    <vehicle id="350" depart="350.00">
        <route edges="20 -3 -7 -16 -2 6 4" />
    </vehicle>
    <vehicle id="355" depart="355.00">
        <route edges="21 -9" />
    </vehicle>
    <vehicle id="363" depart="363.00">
        <route edges="21 -7 -1 -17" />
    </vehicle>
    <vehicle id="369" depart="369.00">
        <route edges="10 2 5 -19" />
    </vehicle>
    <vehicle id="374" depart="374.00">
        <route edges="14 15 -4 -6 2 5 -19" />
    </vehicle>
    <vehicle id="376" depart="376.00">
        <route edges="12 -25" />
    </vehicle>
    <vehicle id="377" depart="377.00">
        <route edges="9 -7" />
    </vehicle>
    <vehicle id="380" depart="380.00">
        <route edges="24 -4 -6" />
    </vehicle>
    <vehicle id="381" depart="381.00">
        <route edges="24 -15" />
    </vehicle>
    <vehicle id="383" depart="383.00">
        <route edges="13 -6 2 16 7 -9" />
    </vehicle>
    <vehicle id="388" depart="388.00">
        <route edges="9 -7 -16 -2 6 4" />
    </vehicle>
    <vehicle id="389" depart="389.00">
        <route edges="14 15 -4 -6 2 16 7 3 -12" />
    </vehicle>
    <vehicle id="391" depart="391.00">
        <route edges="22 7 3 -25" />
    </vehicle>
    <vehicle id="393" depart="393.00">
        <route edges="9 -7 -16" />
    </vehicle>
    <vehicle id="398" depart="398.00">
        <route edges="12 -3 -7 -16 5" />
    </vehicle>
    <vehicle id="405" depart="405.00">
        <route edges="14 15 -4 -6 2 5 -19" />
    </vehicle>
    <vehicle id="408" depart="408.00">
        <route edges="24 -4 -6 2 16 -1" />
    </vehicle>
    <vehicle id="411" depart="411.00">
        <route edges="20 -3 -7 -1 -0 -5 16" />
    </vehicle>
    <vehicle id="412" depart="412.00">
        <route edges="9 -7 -16 -2 6 4 -24" />
    </vehicle>
    <vehicle id="418" depart="418.00">
        <route edges="20 -3 -7 -16 -2 6 -13" />
    </vehicle>
    <vehicle id="419" depart="419.00">
        <route edges="14 15 -4 -6 2 16 -1 -0 -5 -2 6" />
    </vehicle>
    <vehicle id="420" depart="420.00">
        <route edges="10 2 16 -1 -8" />
    </vehicle>
    <vehicle id="423" depart="423.00">
        <route edges="11 -4 -6 2 5 -19" />
    </vehicle>
    <vehicle id="424" depart="424.00">
        <route edges="22 -16 5 0 1" />
    </vehicle>
    <vehicle id="431" depart="431.00">
        <route edges="21 -7 -16 -2 6 4" />
    </vehicle>
    <vehicle id="444" depart="444.00">
        <route edges="10 2 16 -1 -0 -5" />
    </vehicle>
    <vehicle id="445" depart="445.00">
        <route edges="20 -3 -7 -22" />
    </vehicle>
    <vehicle id="450" depart="450.00">
        <route edges="9 -7 -16 -2 6 4 -15 -18" />
    </vehicle>
    <vehicle id="451" depart="451.00">
        <route edges="9 -7" />
    </vehicle>
    <vehicle id="453" depart="453.00">
        <route edges="21 -7 -16 5 0" />
    </vehicle>
    <vehicle id="459" depart="459.00">
        <route edges="21 -9" />
    </vehicle>
    <vehicle id="462" depart="462.00">
        <route edges="20 -3 -7 -16 5 -19" />
    </vehicle>
    <vehicle id="472" depart="472.00">
        <route edges="10 2 16 7 3 -12" />
    </vehicle>
    <vehicle id="479" depart="479.00">
        <route edges="14 15 -4 -6 2 16 -1 -8" />
    </vehicle>
    <vehicle id="480" depart="480.00">
        <route edges="21 -7 -1 -0 -5" />
    </vehicle>
    <vehicle id="492" depart="492.00">
        <route edges="21 -7 -16 5 0" />
    </vehicle>
    <vehicle id="495" depart="495.00">
        <route edges="12 -3 -7 -16 -2 6 4 -11" />
    </vehicle>
    <vehicle id="498" depart="498.00">
        <route edges="11 -4 -6 2 16 -22" />
    </vehicle>
    <vehicle id="502" depart="502.00">
        <route edges="10 2 16 7 -21" />
    </vehicle>
    <vehicle id="505" depart="505.00">
        <route edges="20 -3 -7" />
    </vehicle>
    <vehicle id="516" depart="516.00">
        <route edges="20 -3 -7 -1 -0" />
    </vehicle>
    <vehicle id="529" depart="529.00">
        <route edges="21 -7 -16 -2 6 4 -24" />
    </vehicle>
    <vehicle id="538" depart="538.00">
        <route edges="20 -3 -7 -16 5 0 1" />
    </vehicle>
    <vehicle id="539" depart="539.00">
        <route edges="22 -16 -2 6 4 -15" />
    </vehicle>
    <vehicle id="540" depart="540.00">
        <route edges="14 15 -4 -6 2 5 0 1 -16" />
    </vehicle>
    <vehicle id="541" depart="541.00">
        <route edges="10 2 5 -23" />
    </vehicle>
    <vehicle id="542" depart="542.00">
        <route edges="12 -3 -7 -16 -2 6 4 -11" />
    </vehicle>
    <vehicle id="544" depart="544.00">
        <route edges="11 -4 -13" />
    </vehicle>
    <vehicle id="552" depart="552.00">
        <route edges="24 -4 -6 2 16 7 3" />
    </vehicle>
    <vehicle id="553" depart="553.00">
        <route edges="22 -16 -2 6" />
    </vehicle>
    <vehicle id="556" depart="556.00">
        <route edges="20 -3 -7 -16" />
    </vehicle>
    <vehicle id="558" depart="558.00">
        <route edges="11 -4 -6 2 5 0 1" />
    </vehicle>
    <vehicle id="562" depart="562.00">
        <route edges="20 -3 -7 -1 -0" />
    </vehicle>
    <vehicle id="565" depart="565.00">
        <route edges="22 -16 5 -19" />
    </vehicle>
    <vehicle id="566" depart="566.00">
        <route edges="10 2 16 -1 -0" />
    </vehicle>
    <vehicle id="568" depart="568.00">
        <route edges="12 -3 -7 -16 -2 6 -13" />
    </vehicle>
    <vehicle id="571" depart="571.00">
        <route edges="13 -6 2 16 -1 -0 -5 -2" />
    </vehicle>
    <vehicle id="572" depart="572.00">
        <route edges="11 -4 -6 2 16 7 -9" />
    </vehicle>
    <vehicle id="573" depart="573.00">
        <route edges="24 -4" />
    </vehicle>
    <vehicle id="576" depart="576.00">
        <route edges="21 -7 -1 -17" />
    </vehicle>
    <vehicle id="577" depart="577.00">
        <route edges="20 -3 -7 -16 -2 6 4 -24" />
    </vehicle>
    <vehicle id="578" depart="578.00">
        <route edges="13 -6 2 16 -1 -17" />
    </vehicle>
    <vehicle id="579" depart="579.00">
        <route edges="24 -4 -6 2 16 7 3 -12" />
    </vehicle>
    <vehicle id="580" depart="580.00">
        <route edges="13 4 -15 -18" />
    </vehicle>
    <vehicle id="581" depart="581.00">
        <route edges="21 -7 -16 -2 6 4 -24" />
    </vehicle>
    <vehicle id="582" depart="582.00">
        <route edges="21 -7 -1" />
    </vehicle>
    <vehicle id="583" depart="583.00">
        <route edges="12 -3 -7 -1 -0 -5" />
    </vehicle>
    <vehicle id="589" depart="589.00">
        <route edges="22 7 3 -25" />
    </vehicle>
    <vehicle id="595" depart="595.00">
        <route edges="22 -1 -0 -5 16 -22" />
    </vehicle>
    <vehicle id="602" depart="602.00">
        <route edges="12 -3 -7 -16 5 -19" />
    </vehicle>
    <vehicle id="603" depart="603.00">
        <route edges="10 2 5 -19" />
    </vehicle>
    <vehicle id="611" depart="611.00">
        <route edges="20 -3 -7 -16 -2 6 4 -15 -14" />
    </vehicle>
    <vehicle id="612" depart="612.00">
        <route edges="24 -4 -6 2 16 -1 -0 -5 -2 6 4 -24" />
    </vehicle>
    <vehicle id="613" depart="613.00">
        <route edges="24 -4 -6 2 5 0 1" />
    </vehicle>
    <vehicle id="614" depart="614.00">
        <route edges="14 15 -4 -6 2 5" />
    </vehicle>
    <vehicle id="632" depart="632.00">
        <route edges="10 2 16 7 -9" />
    </vehicle>
    <vehicle id="635" depart="635.00">
        <route edges="13 -6 2 16 7 3 -25" />
    </vehicle>
    <vehicle id="638" depart="638.00">
        <route edges="10 2 16 -1 -0 -5" />
    </vehicle>
    <vehicle id="641" depart="641.00">
        <route edges="21 -7 -16 -2 6 4 -15 -18" />
    </vehicle>
    <vehicle id="647" depart="647.00">
        <route edges="12 -3 -7 -1 -0 -5" />
    </vehicle>
    <vehicle id="652" depart="652.00">
        <route edges="21 3 -25" />
    </vehicle>
    <vehicle id="653" depart="653.00">
        <route edges="20 -3 -7 -22" />
    </vehicle>
    <vehicle id="654" depart="654.00">
        <route edges="11 -4 -6 2 16 7 3 -20" />
    </vehicle>
    <vehicle id="662" depart="662.00">
        <route edges="24 -4 -6 2 16 7 3 -12" />
    </vehicle>
    <vehicle id="663" depart="663.00">
        <route edges="11 -4 -13" />
    </vehicle>
    <vehicle id="666" depart="666.00">
        <route edges="13 -6 2 16 7 -21" />
    </vehicle>
    <vehicle id="667" depart="667.00">
        <route edges="21 -7 -16" />
    </vehicle>
    <vehicle id="668" depart="668.00">
        <route edges="13 4 -15 -18" />
    </vehicle>
    <vehicle id="674" depart="674.00">
        <route edges="14 -18" />
    </vehicle>
    <vehicle id="675" depart="675.00">
        <route edges="11 -4 -6 2 16 7 3 -25" />
    </vehicle>
    <vehicle id="682" depart="682.00">
        <route edges="24 -4 -6 2 16 -1 -17" />
    </vehicle>
    <vehicle id="684" depart="684.00">
        <route edges="13 -6 2 16 -1 -0 -5 -2 6" />
    </vehicle>
    <vehicle id="686" depart="686.00">
        <route edges="10 2 16 -1 -0" />
    </vehicle>
    <vehicle id="689" depart="689.00">
        <route edges="11 -4 -6 2 16 -1" />
    </vehicle>
    <vehicle id="695" depart="695.00">
        <route edges="14 15 -4 -6 2 16 -1 -0" />
    </vehicle>
    <vehicle id="702" depart="702.00">
        <route edges="14 15 -11" />
    </vehicle>
    <vehicle id="706" depart="706.00">
        <route edges="13 -6" />
    </vehicle>
    <vehicle id="708" depart="708.00">
        <route edges="20 -3 -7 -16 -2 6 4 -11" />
    </vehicle>
    <vehicle id="709" depart="709.00">
        <route edges="9 -7 -16 -2 -10" />
    </vehicle>
    <vehicle id="712" depart="712.00">
        <route edges="12 -3 -7 -16 5 -23" />
    </vehicle>
    <vehicle id="717" depart="717.00">
        <route edges="24 -4 -6 2 5 0" />
    </vehicle>
    <vehicle id="721" depart="721.00">
        <route edges="14 15 -4 -6 2 16 7 -9" />
    </vehicle>
    <vehicle id="724" depart="724.00">
        <route edges="14 -18" />
    </vehicle>
    <vehicle id="729" depart="729.00">
        <route edges="24 -15 -14" />
    </vehicle>
    <vehicle id="735" depart="735.00">
        <route edges="9 -7 -16 -2 6 4 -24" />
    </vehicle>
    <vehicle id="743" depart="743.00">
        <route edges="13 -6 2 16 -1 -8" />
    </vehicle>
    <vehicle id="744" depart="744.00">
        <route edges="10 2 16 -1" />
    </vehicle>
    <vehicle id="746" depart="746.00">
        <route edges="9 -7 -1 -17" />
    </vehicle>
    <vehicle id="747" depart="747.00">
        <route edges="9 -7 -16 -2 6" />
    </vehicle>
    <vehicle id="750" depart="750.00">
        <route edges="21 -7 -16 -2 6" />
    </vehicle>
    <vehicle id="754" depart="754.00">
        <route edges="11 -4 -6 2 16 7 3 -20" />
    </vehicle>
    <vehicle id="756" depart="756.00">
        <route edges="21 -7 -16 -2 6" />
    </vehicle>
    <vehicle id="757" depart="757.00">
        <route edges="11 -4 -6 2 5 0 1" />
    </vehicle>
    <vehicle id="759" depart="759.00">
        <route edges="12 -3 -7" />
    </vehicle>
    <vehicle id="762" depart="762.00">
        <route edges="11 -4" />
    </vehicle>
    <vehicle id="764" depart="764.00">
        <route edges="14 15 -4 -6 2 16 7" />
    </vehicle>
    <vehicle id="771" depart="771.00">
        <route edges="10 2 16 -1 -0 -5 -2 -10" />
    </vehicle>
    <vehicle id="782" depart="782.00">
        <route edges="9 -7 -1 -0 -5 16 7 -9" />
    </vehicle>
    <vehicle id="785" depart="785.00">
        <route edges="9 -7" />
    </vehicle>
    <vehicle id="786" depart="786.00">
        <route edges="14 15 -4 -6 2 16 -1 -8" />
    </vehicle>
    <vehicle id="787" depart="787.00">
        <route edges="10 2 16 7 3" />
    </vehicle>
    <vehicle id="790" depart="790.00">
        <route edges="13 4" />
    </vehicle>
    <vehicle id="794" depart="794.00">
        <route edges="10 2 5" />
    </vehicle>
    <vehicle id="801" depart="801.00">
        <route edges="20 -3 -9" />
    </vehicle>
    <vehicle id="806" depart="806.00">
        <route edges="20 -3 -7 -16 5 0 1" />
    </vehicle>
    <vehicle id="807" depart="807.00">
        <route edges="12 -3 -7" />
    </vehicle>
    <vehicle id="811" depart="811.00">
        <route edges="21 -7 -16 -2 6 4 -15 -18" />
    </vehicle>
    <vehicle id="813" depart="813.00">
        <route edges="13 4 -24" />
    </vehicle>
    <vehicle id="817" depart="817.00">
        <route edges="9 3 -12" />
    </vehicle>
    <vehicle id="818" depart="818.00">
        <route edges="11 -4" />
    </vehicle>
    <vehicle id="822" depart="822.00">
        <route edges="11 -4 -6" />
    </vehicle>
    <vehicle id="826" depart="826.00">
        <route edges="24 -4 -6 2 16 -1 -0 -5 -2 6 4 -24" />
    </vehicle>
    <vehicle id="831" depart="831.00">
        <route edges="10 2 16 -1" />
    </vehicle>
    <vehicle id="833" depart="833.00">
        <route edges="20 -3 -7 -16 5 -23" />
    </vehicle>
    <vehicle id="835" depart="835.00">
        <route edges="13 -6 2 16 7 3" />
    </vehicle>
    <vehicle id="837" depart="837.00">
        <route edges="11 -4 -6 2 16 7 -21" />
    </vehicle>
    <vehicle id="842" depart="842.00">
        <route edges="21 3 -12" />
    </vehicle>
    <vehicle id="843" depart="843.00">
        <route edges="9 -21" />
    </vehicle>
    <vehicle id="854" depart="854.00">
        <route edges="10 2 16" />
    </vehicle>
    <vehicle id="857" depart="857.00">
        <route edges="11 -4 -6 2 16 -1 -8" />
    </vehicle>
    <vehicle id="858" depart="858.00">
        <route edges="9 -7 -1 -0 -5" />
    </vehicle>
    <vehicle id="860" depart="860.00">
        <route edges="21 -7 -1 -0" />
    </vehicle>
    <vehicle id="867" depart="867.00">
        <route edges="21 -7 -1" />
    </vehicle>
    <vehicle id="871" depart="871.00">
        <route edges="12 -3 -7 -16 5 0 1" />
    </vehicle>
    <vehicle id="878" depart="878.00">
        <route edges="10 2 16 -1 -0 -5 -2" />
    </vehicle>
    <vehicle id="879" depart="879.00">
        <route edges="24 -4 -6 2 16 7 -9" />
    </vehicle>
    <vehicle id="880" depart="880.00">
        <route edges="20 -3 -7 -1 -8" />
    </vehicle>
    <vehicle id="889" depart="889.00">
        <route edges="21 3 -20" />
    </vehicle>
    <vehicle id="890" depart="890.00">
        <route edges="9 -7 -1 -0 -5 16" />
    </vehicle>
    <vehicle id="893" depart="893.00">
        <route edges="22 -16 -2" />
    </vehicle>
    <vehicle id="894" depart="894.00">
        <route edges="13 -6 2 16 -1 -17" />
    </vehicle>
    <vehicle id="897" depart="897.00">
        <route edges="22 7 3 -12" />
    </vehicle>
    <vehicle id="902" depart="902.00">
        <route edges="22 -16 -2 6 4 -11" />
    </vehicle>
    <vehicle id="903" depart="903.00">
        <route edges="24 -4 -6 2 16 -1 -0" />
    </vehicle>
    <vehicle id="905" depart="905.00">
        <route edges="12 -3 -7 -16 5" />
    </vehicle>
    <vehicle id="915" depart="915.00">
        <route edges="12 -3 -7 -16 -2 6 4 -24" />
    </vehicle>
    <vehicle id="923" depart="923.00">
        <route edges="14 15 -4 -6 2 16 -1 -0 -5 -2 6 4 -15 -14" />
    </vehicle>
    <vehicle id="925" depart="925.00">
        <route edges="14 15 -4 -6 2 16 -1 -17" />
    </vehicle>
    <vehicle id="928" depart="928.00">
        <route edges="24 -15 -14" />
    </vehicle>
    <vehicle id="935" depart="935.00">
        <route edges="24 -4 -6 2 16 -1 -0 -5 -2 6" />
    </vehicle>
    <vehicle id="938" depart="938.00">
        <route edges="21 -7 -16 -2 -10" />
    </vehicle>
    <vehicle id="940" depart="940.00">
        <route edges="12 -25" />
    </vehicle>
    <vehicle id="947" depart="947.00">
        <route edges="12 -3" />
    </vehicle>
    <vehicle id="949" depart="949.00">
        <route edges="20 -3 -7 -16 -2 6 4 -15" />
    </vehicle>
    <vehicle id="952" depart="952.00">
        <route edges="14 15 -4 -6 2 16 7 -9" />
    </vehicle>
    <vehicle id="964" depart="964.00">
        <route edges="12 -3 -7 -1 -0 -5 16" />
    </vehicle>
    <vehicle id="970" depart="970.00">
        <route edges="12 -3 -7 -16 5 0 1" />
    </vehicle>
    <vehicle id="971" depart="971.00">
        <route edges="24 -4 -6 2 16 7" />
    </vehicle>
    <vehicle id="972" depart="972.00">
        <route edges="20 -3 -7 -22" />
    </vehicle>
    <vehicle id="973" depart="973.00">
        <route edges="9 3 -20" />
    </vehicle>
    <vehicle id="975" depart="975.00">
        <route edges="11 -4 -6 2 16 -1 -8" />
    </vehicle>
    <vehicle id="976" depart="976.00">
        <route edges="20 -3" />
    </vehicle>
    <vehicle id="977" depart="977.00">
        <route edges="20 -3 -7 -16 -2" />
    </vehicle>
    <vehicle id="988" depart="988.00">
        <route edges="24 -4 -6 2 16 7 3" />
    </vehicle>
    <vehicle id="993" depart="993.00">
        <route edges="12 -3 -7 -16" />
    </vehicle>
</routes>
