<?xml version="1.0" encoding="UTF-8"?>

<!-- generated on 2024-07-11 11:32:21 by Eclipse SUMO netedit Version 1.20.0
<configuration xmlns:xsi="http://www.w3.org/2001/XMLSchema-instance" xsi:noNamespaceSchemaLocation="http://sumo.dlr.de/xsd/neteditConfiguration.xsd">

    <input>
        <sumo-net-file value="C:\Users\sioldead\OneDrive - McMaster University\Research\Python\NN\Data\ThesisMapFull\ThesisMapFull_Draft1.net.xml"/>
    </input>

    <output>
        <output-file value="C:\Users\sioldead\OneDrive - McMaster University\Research\Python\NN\Data\ThesisMapFull\ThesisMapFull_Draft1.net.xml"/>
    </output>

    <processing>
        <geometry.min-radius.fix.railways value="false"/>
        <geometry.max-grade.fix value="false"/>
        <offset.disable-normalization value="true"/>
        <lefthand value="0"/>
    </processing>

    <junctions>
        <no-turnarounds value="true"/>
        <junctions.corner-detail value="5"/>
        <junctions.limit-turn-speed value="5.50"/>
        <rectangular-lane-cut value="1"/>
    </junctions>

    <pedestrian>
        <walkingareas value="0"/>
    </pedestrian>

</configuration>
-->

<net version="1.20" junctionCornerDetail="5" rectangularLaneCut="true" limitTurnSpeed="5.50" xmlns:xsi="http://www.w3.org/2001/XMLSchema-instance" xsi:noNamespaceSchemaLocation="http://sumo.dlr.de/xsd/net_file.xsd">

    <location netOffset="1469.92,1499.05" convBoundary="0.00,0.00,3619.51,1598.70" origBoundary="-1469.92,-1499.05,2149.59,99.65" projParameter="!"/>

    <edge id=":116_0" function="internal">
        <lane id=":116_0_0" index="0" disallow="pedestrian tram rail_urban rail rail_electric rail_fast ship" speed="11.80" length="30.97" width="3.50" shape="2273.64,348.57 2268.78,340.49 2263.12,335.61 2256.67,333.94 2249.42,335.48">
            <param key="origId" value="123_1"/>
        </lane>
    </edge>
    <edge id=":116_1" function="internal">
        <lane id=":116_1_0" index="0" disallow="pedestrian tram rail_urban rail rail_electric rail_fast ship" speed="12.75" length="38.48" width="3.50" shape="2276.82,347.10 2272.46,334.95 2271.72,325.27 2274.61,318.04 2281.13,313.28">
            <param key="origId" value="121_1"/>
        </lane>
    </edge>
    <edge id=":116_2" function="internal">
        <lane id=":116_2_0" index="0" disallow="pedestrian tram rail_urban rail rail_electric rail_fast ship" speed="10.78" length="27.13" width="3.50" shape="2283.86,319.72 2280.06,322.84 2278.69,327.96 2279.72,335.06 2283.18,344.17">
            <param key="origId" value="122_1"/>
        </lane>
    </edge>
    <edge id=":116_3" function="internal">
        <lane id=":116_3_0" index="0" disallow="pedestrian tram rail_urban rail rail_electric rail_fast ship" speed="24.59" length="37.85" width="3.50" shape="2283.86,319.72 2249.42,335.48">
            <param key="origId" value="117_1"/>
        </lane>
        <lane id=":116_3_1" index="1" disallow="pedestrian tram rail_urban rail rail_electric rail_fast ship" speed="24.59" length="37.85" width="3.50" shape="2282.49,316.50 2248.09,332.24">
            <param key="origId" value="119_1"/>
        </lane>
    </edge>
    <edge id=":116_5" function="internal">
        <lane id=":116_5_0" index="0" disallow="pedestrian tram rail_urban rail rail_electric rail_fast ship" speed="24.59" length="37.77" width="3.50" shape="2245.44,325.76 2279.76,310.06">
            <param key="origId" value="118_-1"/>
        </lane>
        <lane id=":116_5_1" index="1" disallow="pedestrian tram rail_urban rail rail_electric rail_fast ship" speed="24.59" length="37.77" width="3.50" shape="2246.77,329.00 2281.13,313.28">
            <param key="origId" value="120_-1"/>
        </lane>
    </edge>
    <edge id=":116_7" function="internal">
        <lane id=":116_7_0" index="0" disallow="pedestrian tram rail_urban rail rail_electric rail_fast ship" speed="13.67" length="4.18" width="3.50" shape="2246.77,329.00 2250.84,328.09">
            <param key="origId" value="124_-1"/>
        </lane>
    </edge>
    <edge id=":116_8" function="internal">
        <lane id=":116_8_0" index="0" disallow="pedestrian tram rail_urban rail rail_electric rail_fast ship" speed="13.67" length="37.71" width="3.50" shape="2250.84,328.09 2256.90,326.73 2265.82,328.75 2273.52,335.05 2280.00,345.64">
            <param key="origId" value="124_-1"/>
        </lane>
    </edge>
    <edge id=":125_0" function="internal">
        <lane id=":125_0_0" index="0" disallow="pedestrian tram rail_urban rail rail_electric rail_fast ship" speed="11.09" length="28.01" width="3.50" shape="2761.67,283.23 2754.49,284.40 2749.36,287.84 2746.27,293.55 2745.22,301.54">
            <param key="origId" value="135_1"/>
        </lane>
    </edge>
    <edge id=":125_1" function="internal">
        <lane id=":125_1_0" index="0" disallow="pedestrian tram rail_urban rail rail_electric rail_fast ship" speed="24.59" length="44.29" width="3.50" shape="2761.67,283.23 2717.39,283.94">
            <param key="origId" value="129_1"/>
        </lane>
        <lane id=":125_1_1" index="1" disallow="pedestrian tram rail_urban rail rail_electric rail_fast ship" speed="24.59" length="44.29" width="3.50" shape="2761.66,279.73 2717.37,280.44">
            <param key="origId" value="128_1"/>
        </lane>
    </edge>
    <edge id=":125_3" function="internal">
        <lane id=":125_3_0" index="0" disallow="pedestrian tram rail_urban rail rail_electric rail_fast ship" speed="12.71" length="5.69" width="3.50" shape="2761.66,279.73 2756.02,278.96">
            <param key="origId" value="136_1"/>
        </lane>
    </edge>
    <edge id=":125_16" function="internal">
        <lane id=":125_16_0" index="0" disallow="pedestrian tram rail_urban rail rail_electric rail_fast ship" speed="12.71" length="31.74" width="3.50" shape="2756.02,278.96 2751.40,278.33 2744.07,274.04 2739.68,266.86 2738.21,256.80">
            <param key="origId" value="136_1"/>
        </lane>
    </edge>
    <edge id=":125_4" function="internal">
        <lane id=":125_4_0" index="0" disallow="pedestrian tram rail_urban rail rail_electric rail_fast ship" speed="10.69" length="26.11" width="3.50" shape="2745.21,256.80 2746.24,263.79 2749.32,268.78 2754.45,271.76 2761.63,272.73">
            <param key="origId" value="137_1"/>
        </lane>
    </edge>
    <edge id=":125_5" function="internal">
        <lane id=":125_5_0" index="0" disallow="pedestrian tram rail_urban rail rail_electric rail_fast ship" speed="24.59" length="44.74" width="3.50" shape="2745.21,256.80 2745.22,301.54">
            <param key="origId" value="138_1"/>
        </lane>
        <lane id=":125_5_1" index="1" disallow="pedestrian tram rail_urban rail rail_electric rail_fast ship" speed="24.59" length="44.74" width="3.50" shape="2741.71,256.80 2741.72,301.53">
            <param key="origId" value="140_1"/>
        </lane>
    </edge>
    <edge id=":125_7" function="internal">
        <lane id=":125_7_0" index="0" disallow="pedestrian tram rail_urban rail rail_electric rail_fast ship" speed="12.96" length="5.87" width="3.50" shape="2741.71,256.80 2740.85,262.61">
            <param key="origId" value="133_1"/>
        </lane>
    </edge>
    <edge id=":125_17" function="internal">
        <lane id=":125_17_0" index="0" disallow="pedestrian tram rail_urban rail rail_electric rail_fast ship" speed="12.96" length="32.77" width="3.50" shape="2740.85,262.61 2740.19,267.09 2735.63,274.46 2728.02,278.91 2717.37,280.44">
            <param key="origId" value="133_1"/>
        </lane>
    </edge>
    <edge id=":125_8" function="internal">
        <lane id=":125_8_0" index="0" disallow="pedestrian tram rail_urban rail rail_electric rail_fast ship" speed="10.98" length="27.40" width="3.50" shape="2717.33,273.44 2724.93,272.36 2730.37,269.23 2733.62,264.04 2734.71,256.80">
            <param key="origId" value="132_-1"/>
        </lane>
    </edge>
    <edge id=":125_9" function="internal">
        <lane id=":125_9_0" index="0" disallow="pedestrian tram rail_urban rail rail_electric rail_fast ship" speed="24.59" length="44.30" width="3.50" shape="2717.33,273.44 2761.63,272.73">
            <param key="origId" value="127_-1"/>
        </lane>
        <lane id=":125_9_1" index="1" disallow="pedestrian tram rail_urban rail rail_electric rail_fast ship" speed="24.59" length="44.30" width="3.50" shape="2717.35,276.94 2761.64,276.23">
            <param key="origId" value="126_-1"/>
        </lane>
    </edge>
    <edge id=":125_11" function="internal">
        <lane id=":125_11_0" index="0" disallow="pedestrian tram rail_urban rail rail_electric rail_fast ship" speed="13.04" length="5.62" width="3.50" shape="2717.35,276.94 2722.91,277.71">
            <param key="origId" value="130_-1"/>
        </lane>
    </edge>
    <edge id=":125_18" function="internal">
        <lane id=":125_18_0" index="0" disallow="pedestrian tram rail_urban rail rail_electric rail_fast ship" speed="13.04" length="33.94" width="3.50" shape="2722.91,277.71 2728.04,278.42 2735.66,283.01 2740.22,290.72 2741.72,301.53">
            <param key="origId" value="130_-1"/>
        </lane>
    </edge>
    <edge id=":125_12" function="internal">
        <lane id=":125_12_0" index="0" disallow="pedestrian tram rail_urban rail rail_electric rail_fast ship" speed="11.07" length="28.20" width="3.50" shape="2734.72,301.52 2733.65,293.79 2730.41,288.28 2724.99,285.00 2717.39,283.94">
            <param key="origId" value="131_1"/>
        </lane>
    </edge>
    <edge id=":125_13" function="internal">
        <lane id=":125_13_0" index="0" disallow="pedestrian tram rail_urban rail rail_electric rail_fast ship" speed="24.59" length="44.72" width="3.50" shape="2734.72,301.52 2734.71,256.80">
            <param key="origId" value="141_1"/>
        </lane>
        <lane id=":125_13_1" index="1" disallow="pedestrian tram rail_urban rail rail_electric rail_fast ship" speed="24.59" length="44.72" width="3.50" shape="2738.22,301.53 2738.21,256.80">
            <param key="origId" value="139_1"/>
        </lane>
    </edge>
    <edge id=":125_15" function="internal">
        <lane id=":125_15_0" index="0" disallow="pedestrian tram rail_urban rail rail_electric rail_fast ship" speed="13.06" length="6.41" width="3.50" shape="2738.22,301.53 2739.08,295.18">
            <param key="origId" value="134_1"/>
        </lane>
    </edge>
    <edge id=":125_19" function="internal">
        <lane id=":125_19_0" index="0" disallow="pedestrian tram rail_urban rail rail_electric rail_fast ship" speed="13.06" length="32.84" width="3.50" shape="2739.08,295.18 2739.71,290.49 2744.11,282.60 2751.42,277.84 2761.64,276.23">
            <param key="origId" value="134_1"/>
        </lane>
    </edge>
    <edge id=":13.end_0" function="internal">
        <lane id=":13.end_0_0" index="0" disallow="pedestrian tram rail_urban rail rail_electric rail_fast ship" speed="3.82" length="5.11" width="3.50" shape="990.11,1401.35 988.80,1400.47 988.37,1399.59 988.81,1398.72 990.13,1397.85"/>
    </edge>
    <edge id=":14.end_0" function="internal">
        <lane id=":14.end_0_0" index="0" disallow="pedestrian tram rail_urban rail rail_electric rail_fast ship" speed="3.82" length="5.11" width="3.50" shape="3619.50,273.20 3620.82,274.07 3621.26,274.94 3620.83,275.82 3619.52,276.70"/>
    </edge>
    <edge id=":15.end_0" function="internal">
        <lane id=":15.end_0_0" index="0" disallow="pedestrian tram rail_urban rail rail_electric rail_fast ship" speed="3.82" length="5.11" width="3.50" shape="2061.07,1598.71 2060.19,1600.02 2059.31,1600.45 2058.44,1600.01 2057.57,1598.69"/>
    </edge>
    <edge id=":16.end_0" function="internal">
        <lane id=":16.end_0_0" index="0" disallow="pedestrian tram rail_urban rail rail_electric rail_fast ship" speed="3.82" length="5.11" width="3.50" shape="167.87,248.80 168.74,247.49 169.62,247.05 170.49,247.49 171.37,248.80"/>
    </edge>
    <edge id=":17.end_0" function="internal">
        <lane id=":17.end_0_0" index="0" disallow="pedestrian tram rail_urban rail rail_electric rail_fast ship" speed="3.82" length="5.11" width="3.50" shape="1167.27,235.82 1168.14,234.50 1169.01,234.06 1169.89,234.49 1170.77,235.80"/>
    </edge>
    <edge id=":19.end_0" function="internal">
        <lane id=":19.end_0_0" index="0" disallow="pedestrian tram rail_urban rail rail_electric rail_fast ship" speed="3.82" length="5.11" width="3.50" shape="2299.29,1398.41 2300.60,1399.29 2301.04,1400.16 2300.60,1401.04 2299.29,1401.91"/>
    </edge>
    <edge id=":20.end_0" function="internal">
        <lane id=":20.end_0_0" index="0" disallow="pedestrian tram rail_urban rail rail_electric rail_fast ship" speed="3.82" length="5.11" width="3.50" shape="2639.41,432.69 2638.06,431.88 2637.57,431.03 2637.96,430.14 2639.23,429.19"/>
    </edge>
    <edge id=":21.end_0" function="internal">
        <lane id=":21.end_0_0" index="0" disallow="pedestrian tram rail_urban rail rail_electric rail_fast ship" speed="3.82" length="5.11" width="3.50" shape="0.00,401.28 -1.31,400.41 -1.75,399.53 -1.31,398.66 -0.00,397.78"/>
    </edge>
    <edge id=":22_0" function="internal">
        <lane id=":22_0_0" index="0" disallow="pedestrian tram rail_urban rail rail_electric rail_fast ship" speed="24.59" length="45.57" width="3.50" shape="3472.37,281.20 3426.79,280.85">
            <param key="origId" value="27_1"/>
        </lane>
        <lane id=":22_0_1" index="1" disallow="pedestrian tram rail_urban rail rail_electric rail_fast ship" speed="24.59" length="45.57" width="3.50" shape="3472.34,277.70 3426.78,277.35">
            <param key="origId" value="29_1"/>
        </lane>
    </edge>
    <edge id=":22_2" function="internal">
        <lane id=":22_2_0" index="0" disallow="pedestrian tram rail_urban rail rail_electric rail_fast ship" speed="13.22" length="6.30" width="3.50" shape="3472.34,277.70 3466.11,276.79">
            <param key="origId" value="26_1"/>
        </lane>
    </edge>
    <edge id=":22_8" function="internal">
        <lane id=":22_8_0" index="0" disallow="pedestrian tram rail_urban rail rail_electric rail_fast ship" speed="13.22" length="34.62" width="3.50" shape="3466.11,276.79 3461.56,276.13 3453.89,271.26 3449.33,263.08 3447.88,251.61">
            <param key="origId" value="26_1"/>
        </lane>
    </edge>
    <edge id=":22_3" function="internal">
        <lane id=":22_3_0" index="0" disallow="pedestrian tram rail_urban rail rail_electric rail_fast ship" speed="11.29" length="29.51" width="3.50" shape="3454.88,251.66 3455.91,260.04 3459.15,266.00 3464.62,269.56 3472.29,270.70">
            <param key="origId" value="25_1"/>
        </lane>
    </edge>
    <edge id=":22_4" function="internal">
        <lane id=":22_4_0" index="0" disallow="pedestrian tram rail_urban rail rail_electric rail_fast ship" speed="13.28" length="40.47" width="3.50" shape="3451.38,251.63 3449.76,262.85 3445.12,270.88 3437.46,275.71 3426.78,277.35">
            <param key="origId" value="23_1"/>
        </lane>
    </edge>
    <edge id=":22_5" function="internal">
        <lane id=":22_5_0" index="0" disallow="pedestrian tram rail_urban rail rail_electric rail_fast ship" speed="11.36" length="29.28" width="3.50" shape="3426.75,270.35 3434.41,269.15 3439.90,265.63 3443.22,259.77 3444.38,251.58">
            <param key="origId" value="24_-1"/>
        </lane>
    </edge>
    <edge id=":22_6" function="internal">
        <lane id=":22_6_0" index="0" disallow="pedestrian tram rail_urban rail rail_electric rail_fast ship" speed="24.59" length="45.55" width="3.50" shape="3426.75,270.35 3472.29,270.70">
            <param key="origId" value="30_-1"/>
        </lane>
        <lane id=":22_6_1" index="1" disallow="pedestrian tram rail_urban rail rail_electric rail_fast ship" speed="24.59" length="45.55" width="3.50" shape="3426.76,273.85 3472.32,274.20">
            <param key="origId" value="28_-1"/>
        </lane>
    </edge>
    <edge id=":31_0" function="internal">
        <lane id=":31_0_0" index="0" disallow="pedestrian tram rail_urban rail rail_electric rail_fast ship" speed="11.08" length="27.87" width="3.50" shape="1192.36,1404.19 1185.02,1405.29 1179.76,1408.61 1176.56,1414.15 1175.44,1421.90">
            <param key="origId" value="39_1"/>
        </lane>
    </edge>
    <edge id=":31_1" function="internal">
        <lane id=":31_1_0" index="0" disallow="pedestrian tram rail_urban rail rail_electric rail_fast ship" speed="24.59" length="44.95" width="3.50" shape="1192.36,1404.19 1147.42,1405.38">
            <param key="origId" value="33_1"/>
        </lane>
        <lane id=":31_1_1" index="1" disallow="pedestrian tram rail_urban rail rail_electric rail_fast ship" speed="24.59" length="44.95" width="3.50" shape="1192.36,1400.69 1147.43,1401.88">
            <param key="origId" value="32_1"/>
        </lane>
    </edge>
    <edge id=":31_3" function="internal">
        <lane id=":31_3_0" index="0" disallow="pedestrian tram rail_urban rail rail_electric rail_fast ship" speed="12.78" length="5.22" width="3.50" shape="1192.36,1400.69 1187.19,1399.97">
            <param key="origId" value="36_1"/>
        </lane>
    </edge>
    <edge id=":31_16" function="internal">
        <lane id=":31_16_0" index="0" disallow="pedestrian tram rail_urban rail rail_electric rail_fast ship" speed="12.78" length="32.47" width="3.50" shape="1187.19,1399.97 1182.02,1399.24 1174.63,1394.91 1170.19,1387.69 1168.71,1377.59">
            <param key="origId" value="36_1"/>
        </lane>
    </edge>
    <edge id=":31_4" function="internal">
        <lane id=":31_4_0" index="0" disallow="pedestrian tram rail_urban rail rail_electric rail_fast ship" speed="10.76" length="26.41" width="3.50" shape="1175.71,1377.59 1176.75,1384.63 1179.88,1389.66 1185.08,1392.68 1192.36,1393.69">
            <param key="origId" value="37_-1"/>
        </lane>
    </edge>
    <edge id=":31_5" function="internal">
        <lane id=":31_5_0" index="0" disallow="pedestrian tram rail_urban rail rail_electric rail_fast ship" speed="24.59" length="44.30" width="3.50" shape="1175.71,1377.59 1175.44,1421.90">
            <param key="origId" value="47_-1"/>
        </lane>
        <lane id=":31_5_1" index="1" disallow="pedestrian tram rail_urban rail rail_electric rail_fast ship" speed="24.59" length="44.30" width="3.50" shape="1172.21,1377.59 1171.94,1421.87">
            <param key="origId" value="44_-1"/>
        </lane>
    </edge>
    <edge id=":31_7" function="internal">
        <lane id=":31_7_0" index="0" disallow="pedestrian tram rail_urban rail rail_electric rail_fast ship" speed="13.07" length="6.26" width="3.50" shape="1172.21,1377.59 1171.31,1383.78">
            <param key="origId" value="40_-1"/>
        </lane>
    </edge>
    <edge id=":31_17" function="internal">
        <lane id=":31_17_0" index="0" disallow="pedestrian tram rail_urban rail rail_electric rail_fast ship" speed="13.07" length="33.35" width="3.50" shape="1171.31,1383.78 1170.67,1388.25 1166.02,1395.85 1158.28,1400.39 1147.43,1401.88">
            <param key="origId" value="40_-1"/>
        </lane>
    </edge>
    <edge id=":31_8" function="internal">
        <lane id=":31_8_0" index="0" disallow="pedestrian tram rail_urban rail rail_electric rail_fast ship" speed="11.10" length="28.28" width="3.50" shape="1147.46,1394.88 1155.23,1393.82 1160.78,1390.59 1164.10,1385.18 1165.21,1377.59">
            <param key="origId" value="41_1"/>
        </lane>
    </edge>
    <edge id=":31_9" function="internal">
        <lane id=":31_9_0" index="0" disallow="pedestrian tram rail_urban rail rail_electric rail_fast ship" speed="24.59" length="44.93" width="3.50" shape="1147.46,1394.88 1192.36,1393.69">
            <param key="origId" value="35_1"/>
        </lane>
        <lane id=":31_9_1" index="1" disallow="pedestrian tram rail_urban rail rail_electric rail_fast ship" speed="24.59" length="44.93" width="3.50" shape="1147.45,1398.38 1192.36,1397.19">
            <param key="origId" value="34_1"/>
        </lane>
    </edge>
    <edge id=":31_11" function="internal">
        <lane id=":31_11_0" index="0" disallow="pedestrian tram rail_urban rail rail_electric rail_fast ship" speed="12.91" length="5.26" width="3.50" shape="1147.45,1398.38 1152.66,1399.10">
            <param key="origId" value="42_1"/>
        </lane>
    </edge>
    <edge id=":31_18" function="internal">
        <lane id=":31_18_0" index="0" disallow="pedestrian tram rail_urban rail rail_electric rail_fast ship" speed="12.91" length="33.49" width="3.50" shape="1152.66,1399.10 1158.25,1399.88 1165.94,1404.29 1170.50,1411.62 1171.94,1421.87">
            <param key="origId" value="42_1"/>
        </lane>
    </edge>
    <edge id=":31_12" function="internal">
        <lane id=":31_12_0" index="0" disallow="pedestrian tram rail_urban rail rail_electric rail_fast ship" speed="10.93" length="27.41" width="3.50" shape="1164.94,1421.80 1163.91,1414.64 1160.64,1409.51 1155.15,1406.43 1147.42,1405.38">
            <param key="origId" value="43_1"/>
        </lane>
    </edge>
    <edge id=":31_13" function="internal">
        <lane id=":31_13_0" index="0" disallow="pedestrian tram rail_urban rail rail_electric rail_fast ship" speed="24.59" length="44.22" width="3.50" shape="1164.94,1421.80 1165.21,1377.59">
            <param key="origId" value="46_1"/>
        </lane>
        <lane id=":31_13_1" index="1" disallow="pedestrian tram rail_urban rail rail_electric rail_fast ship" speed="24.59" length="44.22" width="3.50" shape="1168.44,1421.83 1168.71,1377.59">
            <param key="origId" value="45_1"/>
        </lane>
    </edge>
    <edge id=":31_15" function="internal">
        <lane id=":31_15_0" index="0" disallow="pedestrian tram rail_urban rail rail_electric rail_fast ship" speed="13.05" length="6.15" width="3.50" shape="1168.44,1421.83 1169.34,1415.75">
            <param key="origId" value="38_1"/>
        </lane>
    </edge>
    <edge id=":31_19" function="internal">
        <lane id=":31_19_0" index="0" disallow="pedestrian tram rail_urban rail rail_electric rail_fast ship" speed="13.05" length="32.93" width="3.50" shape="1169.34,1415.75 1170.03,1411.05 1174.55,1403.34 1181.99,1398.73 1192.36,1397.19">
            <param key="origId" value="38_1"/>
        </lane>
    </edge>
    <edge id=":4.end_0" function="internal">
        <lane id=":4.end_0_0" index="0" disallow="pedestrian tram rail_urban rail rail_electric rail_fast ship" speed="3.82" length="5.11" width="3.50" shape="2048.64,199.75 2049.45,198.39 2050.30,197.91 2051.20,198.30 2052.14,199.57"/>
    </edge>
    <edge id=":48_0" function="internal">
        <lane id=":48_0_0" index="0" disallow="pedestrian tram rail_urban rail rail_electric rail_fast ship" speed="11.06" length="27.92" width="3.50" shape="1164.64,422.07 1163.58,414.32 1160.41,408.79 1155.13,405.46 1147.74,404.35">
            <param key="origId" value="57_1"/>
        </lane>
    </edge>
    <edge id=":48_1" function="internal">
        <lane id=":48_1_0" index="0" disallow="pedestrian tram rail_urban rail rail_electric rail_fast ship" speed="24.59" length="45.28" width="3.50" shape="1164.64,422.07 1164.62,376.80">
            <param key="origId" value="51_1"/>
        </lane>
        <lane id=":48_1_1" index="1" disallow="pedestrian tram rail_urban rail rail_electric rail_fast ship" speed="24.59" length="45.28" width="3.50" shape="1168.14,422.07 1168.12,376.78">
            <param key="origId" value="52_1"/>
        </lane>
    </edge>
    <edge id=":48_3" function="internal">
        <lane id=":48_3_0" index="0" disallow="pedestrian tram rail_urban rail rail_electric rail_fast ship" speed="13.00" length="6.37" width="3.50" shape="1168.14,422.07 1169.00,415.76">
            <param key="origId" value="60_1"/>
        </lane>
    </edge>
    <edge id=":48_16" function="internal">
        <lane id=":48_16_0" index="0" disallow="pedestrian tram rail_urban rail rail_electric rail_fast ship" speed="13.00" length="32.71" width="3.50" shape="1169.00,415.76 1169.61,411.21 1174.04,403.45 1181.43,398.80 1191.77,397.25">
            <param key="origId" value="60_1"/>
        </lane>
    </edge>
    <edge id=":48_4" function="internal">
        <lane id=":48_4_0" index="0" disallow="pedestrian tram rail_urban rail rail_electric rail_fast ship" speed="11.02" length="27.79" width="3.50" shape="1191.77,404.25 1184.49,405.36 1179.29,408.70 1176.18,414.27 1175.14,422.07">
            <param key="origId" value="59_1"/>
        </lane>
    </edge>
    <edge id=":48_5" function="internal">
        <lane id=":48_5_0" index="0" disallow="pedestrian tram rail_urban rail rail_electric rail_fast ship" speed="24.59" length="44.03" width="3.50" shape="1191.77,404.25 1147.74,404.35">
            <param key="origId" value="63_1"/>
        </lane>
        <lane id=":48_5_1" index="1" disallow="pedestrian tram rail_urban rail rail_electric rail_fast ship" speed="24.59" length="44.03" width="3.50" shape="1191.77,400.75 1147.74,400.85">
            <param key="origId" value="64_1"/>
        </lane>
    </edge>
    <edge id=":48_7" function="internal">
        <lane id=":48_7_0" index="0" disallow="pedestrian tram rail_urban rail rail_electric rail_fast ship" speed="12.91" length="5.87" width="3.50" shape="1191.77,400.75 1185.96,399.90">
            <param key="origId" value="55_1"/>
        </lane>
    </edge>
    <edge id=":48_17" function="internal">
        <lane id=":48_17_0" index="0" disallow="pedestrian tram rail_urban rail rail_electric rail_fast ship" speed="12.91" length="32.47" width="3.50" shape="1185.96,399.90 1181.48,399.25 1174.10,394.76 1169.65,387.27 1168.12,376.78">
            <param key="origId" value="55_1"/>
        </lane>
    </edge>
    <edge id=":48_8" function="internal">
        <lane id=":48_8_0" index="0" disallow="pedestrian tram rail_urban rail rail_electric rail_fast ship" speed="10.92" length="27.11" width="3.50" shape="1175.12,376.74 1176.20,384.18 1179.33,389.50 1184.52,392.69 1191.77,393.75">
            <param key="origId" value="56_1"/>
        </lane>
    </edge>
    <edge id=":48_9" function="internal">
        <lane id=":48_9_0" index="0" disallow="pedestrian tram rail_urban rail rail_electric rail_fast ship" speed="24.59" length="45.32" width="3.50" shape="1175.12,376.74 1175.14,422.07">
            <param key="origId" value="50_1"/>
        </lane>
        <lane id=":48_9_1" index="1" disallow="pedestrian tram rail_urban rail rail_electric rail_fast ship" speed="24.59" length="45.32" width="3.50" shape="1171.62,376.76 1171.64,422.07">
            <param key="origId" value="49_1"/>
        </lane>
    </edge>
    <edge id=":48_11" function="internal">
        <lane id=":48_11_0" index="0" disallow="pedestrian tram rail_urban rail rail_electric rail_fast ship" speed="12.91" length="6.33" width="3.50" shape="1171.62,376.76 1170.76,383.03">
            <param key="origId" value="54_1"/>
        </lane>
    </edge>
    <edge id=":48_18" function="internal">
        <lane id=":48_18_0" index="0" disallow="pedestrian tram rail_urban rail rail_electric rail_fast ship" speed="12.91" length="32.41" width="3.50" shape="1170.76,383.03 1170.18,387.31 1165.72,394.84 1158.24,399.35 1147.74,400.85">
            <param key="origId" value="54_1"/>
        </lane>
    </edge>
    <edge id=":48_12" function="internal">
        <lane id=":48_12_0" index="0" disallow="pedestrian tram rail_urban rail rail_electric rail_fast ship" speed="10.92" length="27.40" width="3.50" shape="1147.74,393.85 1155.17,392.79 1160.45,389.59 1163.60,384.26 1164.62,376.80">
            <param key="origId" value="53_-1"/>
        </lane>
    </edge>
    <edge id=":48_13" function="internal">
        <lane id=":48_13_0" index="0" disallow="pedestrian tram rail_urban rail rail_electric rail_fast ship" speed="24.59" length="44.03" width="3.50" shape="1147.74,393.85 1191.77,393.75">
            <param key="origId" value="62_-1"/>
        </lane>
        <lane id=":48_13_1" index="1" disallow="pedestrian tram rail_urban rail rail_electric rail_fast ship" speed="24.59" length="44.03" width="3.50" shape="1147.74,397.35 1191.77,397.25">
            <param key="origId" value="61_-1"/>
        </lane>
    </edge>
    <edge id=":48_15" function="internal">
        <lane id=":48_15_0" index="0" disallow="pedestrian tram rail_urban rail rail_electric rail_fast ship" speed="13.03" length="5.77" width="3.50" shape="1147.74,397.35 1153.45,398.20">
            <param key="origId" value="58_-1"/>
        </lane>
    </edge>
    <edge id=":48_19" function="internal">
        <lane id=":48_19_0" index="0" disallow="pedestrian tram rail_urban rail rail_electric rail_fast ship" speed="13.03" length="33.42" width="3.50" shape="1153.45,398.20 1158.19,398.90 1165.66,403.54 1170.14,411.26 1171.64,422.07">
            <param key="origId" value="58_-1"/>
        </lane>
    </edge>
    <edge id=":5.end_0" function="internal">
        <lane id=":5.end_0_0" index="0" disallow="pedestrian tram rail_urban rail rail_electric rail_fast ship" speed="3.82" length="5.11" width="3.50" shape="1170.63,1550.66 1169.74,1551.96 1168.86,1552.39 1167.99,1551.94 1167.13,1550.62"/>
    </edge>
    <edge id=":6.end_0" function="internal">
        <lane id=":6.end_0_0" index="0" disallow="pedestrian tram rail_urban rail rail_electric rail_fast ship" speed="3.82" length="5.11" width="3.50" shape="2312.15,799.89 2311.27,801.20 2310.40,801.64 2309.52,801.20 2308.65,799.89"/>
    </edge>
    <edge id=":65_0" function="internal">
        <lane id=":65_0_0" index="0" disallow="pedestrian tram rail_urban rail rail_electric rail_fast ship" speed="10.91" length="27.09" width="3.50" shape="2081.73,1405.13 2074.70,1406.21 2069.66,1409.48 2066.62,1414.94 2065.57,1422.59">
            <param key="origId" value="80_1"/>
        </lane>
    </edge>
    <edge id=":65_1" function="internal">