<?xml version="1.0" encoding="UTF-8"?>

<!-- generated on 2024-07-17 11:37:17 by Eclipse SUMO netedit Version 1.20.0
-->

<routes xmlns:xsi="http://www.w3.org/2001/XMLSchema-instance" xsi:noNamespaceSchemaLocation="http://sumo.dlr.de/xsd/routes_file.xsd">
    <!-- Vehicles, persons and containers (sorted by depart) -->
    <trip id="ego_1" depart="0.00" color="0,3,255" from="25" to="-18" via="-3 -7 -1 -0 -5 -2 6 4 -15"/>
    <trip id="ego_2" depart="0.00" color="0,3,255" from="25" to="-18" via="-3 -7 -16 -2 6 4 -15"/>
    <trip id="ego_3" depart="0.00" color="0,3,255" from="19" to="-18" via="-5 -2 6 4 -15"/>
</routes>
