<?xml version="1.0" encoding="UTF-8"?>

<!-- generated on 2024-07-11 19:55:30 by Eclipse SUMO netedit Version 1.20.0
-->

<routes xmlns:xsi="http://www.w3.org/2001/XMLSchema-instance" xsi:noNamespaceSchemaLocation="http://sumo.dlr.de/xsd/routes_file.xsd">
    <!-- Vehicles, persons and containers (sorted by depart) -->
    <flow id="f_0" begin="0.00" end="3600.00" probability="0.10000000000000000555">
        <route edges="12 -20"/>
    </flow>
    <flow id="f_1" begin="0.00" end="3600.00" probability="0.10000000000000000555">
        <route edges="20 -12"/>
    </flow>
    <flow id="f_10" begin="0.00" end="3600.00" probability="0.14999999999999999445">
        <route edges="10 2 16 7 3 -25"/>
    </flow>
    <flow id="f_2" begin="0.00" end="3600.00" probability="0.10000000000000000555">
        <route edges="20 -25"/>
    </flow>
    <flow id="f_3" begin="0.00" end="3600.00" probability="0.10000000000000000555">
        <route edges="12 -25"/>
    </flow>
    <flow id="f_4" begin="0.00" end="3600.00" probability="0.2">
        <route edges="25 -3 -7 -16 -2 6 4 -15 -18"/>
    </flow>
    <flow id="f_5" begin="0.00" end="3600.00" probability="0.2">
        <route edges="18 15 -4 -6 2 16 7 3 -25"/>
    </flow>
    <flow id="f_6" begin="0.00" end="3600.00" probability="0.2">
        <route edges="17 -0 -5 -2 6 4 -15 -18"/>
    </flow>
    <flow id="f_7" begin="0.00" end="3600.00" probability="0.2">
        <route edges="23 0 1 7 3 -25"/>
    </flow>
    <flow id="f_8" begin="0.00" end="3600.00" probability="0.25">
        <route edges="17 1 7 3 -25"/>
    </flow>
    <flow id="f_9" begin="0.00" end="3600.00" probability="0.25">
        <route edges="23 -5 -2 6 4 -15 -18"/>
    </flow>
</routes>
