<?xml version="1.0" encoding="UTF-8"?>

<!-- generated on 2024-06-11 15:56:44 by Eclipse SUMO netedit Version 1.19.0
<configuration xmlns:xsi="http://www.w3.org/2001/XMLSchema-instance" xsi:noNamespaceSchemaLocation="http://sumo.dlr.de/xsd/neteditConfiguration.xsd">

    <input>
        <sumocfg-file value="C:\Users\sioldead\Desktop\carla\Co-Simulation\Sumo\examples\RymalRoadSimplified.sumocfg"/>
        <route-files value="C:\Users\sioldead\Desktop\carla\Co-Simulation\Sumo\examples\rou\RymalRoadSimplified.rou.xml"/>
        <sumo-net-file value="C:\Users\sioldead\Desktop\carla\Co-Simulation\Sumo\examples\net\RymalRoadSimplified.net.xml"/>
    </input>

    <output>
        <output-file value="C:\Users\sioldead\Desktop\carla\Co-Simulation\Sumo\examples\net\RymalRoadSimplified.net.xml"/>
    </output>

    <processing>
        <geometry.min-radius.fix.railways value="false"/>
        <geometry.max-grade.fix value="false"/>
        <offset.disable-normalization value="true"/>
        <lefthand value="0"/>
    </processing>

    <junctions>
        <no-turnarounds value="true"/>
        <junctions.corner-detail value="5"/>
        <junctions.limit-turn-speed value="5.50"/>
        <rectangular-lane-cut value="1"/>
    </junctions>

    <pedestrian>
        <walkingareas value="0"/>
    </pedestrian>

</configuration>
-->

<net version="1.16" junctionCornerDetail="5" rectangularLaneCut="true" limitTurnSpeed="5.50" xmlns:xsi="http://www.w3.org/2001/XMLSchema-instance" xsi:noNamespaceSchemaLocation="http://sumo.dlr.de/xsd/net_file.xsd">

    <location netOffset="290.76,401.37" convBoundary="0.00,0.00,558.89,812.50" origBoundary="-290.76,-401.37,268.13,411.14" projParameter="!"/>

    <edge id=":5_0" function="internal">
        <lane id=":5_0_0" index="0" disallow="pedestrian tram rail_urban rail rail_electric rail_fast ship" speed="12.62" length="36.72" width="3.50" shape="286.39,433.78 285.29,421.84 281.96,413.30 276.39,408.17 268.59,406.45">
            <param key="origId" value="10_1"/>
            <param key="signalID" value="27"/>
        </lane>
    </edge>
    <edge id=":5_1" function="internal">
        <lane id=":5_1_0" index="0" disallow="pedestrian tram rail_urban rail rail_electric rail_fast ship" speed="24.59" length="55.08" width="3.50" shape="286.39,433.78 286.41,378.71">
            <param key="origId" value="17_1"/>
            <param key="signalID" value="24"/>
        </lane>
    </edge>
    <edge id=":5_2" function="internal">
        <lane id=":5_2_0" index="0" disallow="pedestrian tram rail_urban rail rail_electric rail_fast ship" speed="14.22" length="9.09" width="3.50" shape="289.89,433.79 290.75,424.74"/>
    </edge>
    <edge id=":5_12" function="internal">
        <lane id=":5_12_0" index="0" disallow="pedestrian tram rail_urban rail rail_electric rail_fast ship" speed="14.22" length="38.14" width="3.50" shape="290.75,424.74 291.35,418.42 295.67,407.46 302.87,400.92 312.93,398.80"/>
    </edge>
    <edge id=":5_3" function="internal">
        <lane id=":5_3_0" index="0" disallow="pedestrian tram rail_urban rail rail_electric rail_fast ship" speed="12.89" length="38.57" width="3.50" shape="312.88,405.80 304.37,407.50 298.28,412.73 294.62,421.49 293.39,433.79"/>
    </edge>
    <edge id=":5_4" function="internal">
        <lane id=":5_4_0" index="0" disallow="pedestrian tram rail_urban rail rail_electric rail_fast ship" speed="24.59" length="44.30" width="3.50" shape="312.88,405.80 268.59,406.45"/>
    </edge>
    <edge id=":5_5" function="internal">
        <lane id=":5_5_0" index="0" disallow="pedestrian tram rail_urban rail rail_electric rail_fast ship" speed="13.24" length="5.85" width="3.50" shape="312.91,402.30 307.11,401.53"/>
    </edge>
    <edge id=":5_13" function="internal">
        <lane id=":5_13_0" index="0" disallow="pedestrian tram rail_urban rail rail_electric rail_fast ship" speed="13.24" length="34.50" width="3.50" shape="307.11,401.53 301.30,400.75 293.02,396.30 288.06,388.96 286.41,378.71"/>
    </edge>
    <edge id=":5_6" function="internal">
        <lane id=":5_6_0" index="0" disallow="pedestrian tram rail_urban rail rail_electric rail_fast ship" speed="11.81" length="31.90" width="3.50" shape="293.41,378.72 294.62,387.45 298.28,393.71 304.38,397.49 312.93,398.80">
            <param key="origId" value="13_1"/>
        </lane>
    </edge>
    <edge id=":5_7" function="internal">
        <lane id=":5_7_0" index="0" disallow="pedestrian tram rail_urban rail rail_electric rail_fast ship" speed="24.59" length="55.08" width="3.50" shape="293.41,378.72 293.39,433.79">
            <param key="origId" value="16_1"/>
            <param key="signalID" value="18"/>
        </lane>
    </edge>
    <edge id=":5_8" function="internal">
        <lane id=":5_8_0" index="0" disallow="pedestrian tram rail_urban rail rail_electric rail_fast ship" speed="13.10" length="7.80" width="3.50" shape="289.91,378.71 289.05,386.46"/>
    </edge>
    <edge id=":5_14" function="internal">
        <lane id=":5_14_0" index="0" disallow="pedestrian tram rail_urban rail rail_electric rail_fast ship" speed="13.10" length="31.90" width="3.50" shape="289.05,386.46 288.56,390.86 284.56,399.53 277.90,404.73 268.59,406.45"/>
    </edge>
    <edge id=":5_9" function="internal">
        <lane id=":5_9_0" index="0" disallow="pedestrian tram rail_urban rail rail_electric rail_fast ship" speed="11.64" length="31.13" width="3.50" shape="268.60,399.45 276.38,398.17 281.94,394.28 285.29,387.79 286.41,378.71"/>
    </edge>
    <edge id=":5_10" function="internal">
        <lane id=":5_10_0" index="0" disallow="pedestrian tram rail_urban rail rail_electric rail_fast ship" speed="24.59" length="44.34" width="3.50" shape="268.60,399.45 312.93,398.80"/>
    </edge>
    <edge id=":5_11" function="internal">
        <lane id=":5_11_0" index="0" disallow="pedestrian tram rail_urban rail rail_electric rail_fast ship" speed="13.92" length="4.54" width="3.50" shape="268.59,402.95 273.07,403.75"/>
    </edge>
    <edge id=":5_15" function="internal">
        <lane id=":5_15_0" index="0" disallow="pedestrian tram rail_urban rail rail_electric rail_fast ship" speed="13.92" length="40.43" width="3.50" shape="273.07,403.75 279.46,404.89 287.21,410.68 291.85,420.32 293.39,433.79"/>
    </edge>

    <edge id="-0" from="5" to="0.end" priority="1" type="shoulder|driving" shape="288.16,378.71 288.62,0.00">
        <lane id="-0_0" index="0" disallow="all" speed="24.59" length="378.71" width="0.50" shape="284.41,378.71 284.87,-0.00" type="shoulder">
            <param key="origId" value="0_-2"/>
        </lane>
        <lane id="-0_1" index="1" disallow="pedestrian tram rail_urban rail rail_electric rail_fast ship" speed="24.59" length="378.71" width="3.50" shape="286.41,378.71 286.87,-0.00" type="driving">
            <param key="origId" value="0_-1"/>
        </lane>
    </edge>
    <edge id="-2" from="5" to="2.end" priority="1" type="shoulder|driving" shape="291.64,433.79 291.18,812.50">
        <lane id="-2_0" index="0" disallow="all" speed="24.59" length="378.71" width="0.50" shape="295.39,433.79 294.93,812.50" type="shoulder">
            <param key="origId" value="2_-2"/>
        </lane>
        <lane id="-2_1" index="1" disallow="pedestrian tram rail_urban rail rail_electric rail_fast ship" speed="24.59" length="378.71" width="3.50" shape="293.39,433.79 292.93,812.50" type="driving">
            <param key="origId" value="2_-1"/>
        </lane>
    </edge>
    <edge id="-3" from="5" to="3.end" priority="1" type="shoulder|driving" shape="268.59,404.70 0.00,404.22">
        <lane id="-3_0" index="0" disallow="all" speed="24.59" length="268.59" width="0.50" shape="268.58,408.45 -0.01,407.97" type="shoulder">
            <param key="origId" value="3_-2"/>
        </lane>
        <lane id="-3_1" index="1" disallow="pedestrian tram rail_urban rail rail_electric rail_fast ship" speed="24.59" length="268.59" width="3.50" shape="268.59,406.45 -0.00,405.97" type="driving">
            <param key="origId" value="3_-1"/>
        </lane>
    </edge>
    <edge id="-4" from="5" to="1.end" priority="1" type="shoulder|driving" shape="312.92,400.55 321.00,400.61 322.00,400.62 323.00,400.63 324.04,400.63 325.04,400.64 326.04,400.64 327.04,400.64 328.04,400.64 329.04,400.63 329.15,400.63 330.15,400.62 331.15,400.61 341.27,400.53 363.36,400.35 364.36,400.34 365.36,400.34 366.36,400.33 367.36,400.33 368.36,400.32 369.36,400.33 369.70,400.33 370.70,400.33 371.70,400.34 372.70,400.36 373.70,400.38 374.70,400.40 375.70,400.43 376.70,400.46 377.70,400.49 378.70,400.53 379.70,400.57 380.69,400.62 381.69,400.67 382.69,400.72 383.69,400.78 384.69,400.84 385.69,400.91 386.68,400.98 387.68,401.05 388.68,401.13 389.68,401.21 390.67,401.30 391.67,401.39 392.67,401.48 393.66,401.57 394.66,401.66 394.99,401.69 395.99,401.78 396.99,401.84 397.98,401.89 398.98,401.92 399.98,401.93 400.98,401.92 401.98,401.90 402.98,401.85 403.98,401.79 404.98,401.71 405.97,401.61 406.97,401.49 407.96,401.36 408.94,401.21 409.93,401.03 410.91,400.85 411.89,400.64 412.86,400.41 413.83,400.17 414.80,399.91 415.76,399.63 416.72,399.34 417.67,399.02 418.61,398.69 419.55,398.35 420.48,397.98 421.40,397.60 422.32,397.20 423.23,396.79 424.13,396.35 424.89,395.97 435.70,390.47 436.59,390.02 437.48,389.56 438.37,389.10 439.26,388.64 440.15,388.18 441.03,387.71 441.92,387.24 442.80,386.78 443.68,386.31 444.56,385.83 445.44,385.36 446.32,384.88 447.20,384.40 448.08,383.92 448.95,383.44 449.83,382.96 450.70,382.47 451.58,381.98 452.45,381.49 453.32,381.00 454.19,380.50 455.05,380.01 455.92,379.51 456.79,379.01 457.65,378.51 458.52,378.00 459.38,377.50 460.24,376.99 461.10,376.48 461.96,375.97 462.82,375.45 463.67,374.94 464.53,374.42 465.38,373.90 466.24,373.38 467.09,372.86 467.94,372.33 468.79,371.80 469.64,371.27 470.49,370.74 471.33,370.21 472.18,369.68 473.02,369.14 473.86,368.60 474.71,368.06 475.21,367.74 481.23,363.85 482.07,363.31 482.92,362.77 483.76,362.24 484.61,361.71 485.46,361.18 486.31,360.66 487.17,360.14 488.03,359.63 488.89,359.11 489.75,358.61 490.61,358.10 491.48,357.60 492.35,357.11 493.22,356.62 494.09,356.13 494.97,355.64 495.84,355.16 496.72,354.69 497.60,354.22 498.49,353.75 499.37,353.28 500.26,352.82 501.15,352.36 502.04,351.91 502.93,351.46 503.83,351.02 504.73,350.57 505.63,350.14 506.53,349.70 507.43,349.27 508.33,348.85 508.56,348.74 512.50,346.91 513.40,346.49 514.31,346.07 515.22,345.66 516.14,345.25 517.05,344.85 517.97,344.45 518.89,344.06 519.81,343.67 520.73,343.28 521.66,342.90 522.59,342.53 523.51,342.15 524.44,341.79 525.38,341.43 526.31,341.07 527.25,340.71 528.18,340.37 529.12,340.02 530.06,339.68 531.00,339.35 531.95,339.02 532.89,338.69 533.46,338.50 534.41,338.18 535.37,337.88 536.33,337.59 537.29,337.32 538.25,337.05 539.22,336.80 540.19,336.57 541.17,336.35 542.14,336.14 543.13,335.94 544.11,335.76 545.09,335.59 546.08,335.43 547.07,335.29 548.06,335.16 549.06,335.05 550.05,334.95 551.05,334.86 552.05,334.79 553.04,334.73 554.04,334.68 555.04,334.65 555.49,334.63 558.89,334.57">
        <lane id="-4_0" index="0" disallow="all" speed="24.59" length="261.85" width="0.50" shape="312.95,396.80 321.03,396.86 322.04,396.87 323.02,396.88 324.06,396.88 325.06,396.89 326.04,396.89 327.04,396.89 328.02,396.89 329.01,396.88 329.12,396.88 330.11,396.87 331.12,396.86 341.24,396.78 363.33,396.60 364.34,396.59 365.34,396.59 366.34,396.58 367.34,396.58 368.36,396.57 369.39,396.58 369.70,396.58 370.72,396.58 371.76,396.59 372.77,396.61 373.77,396.63 374.79,396.65 375.81,396.68 376.81,396.71 377.83,396.74 378.85,396.78 379.87,396.82 380.88,396.87 381.88,396.92 382.90,396.98 383.91,397.04 384.93,397.10 385.95,397.17 386.94,397.24 387.96,397.31 388.98,397.39 390.00,397.47 391.01,397.57 392.01,397.66 393.01,397.75 394.00,397.84 395.00,397.93 395.33,397.96 396.27,398.04 397.20,398.10 398.13,398.14 399.05,398.17 399.98,398.18 400.92,398.17 401.85,398.15 402.77,398.11 403.72,398.05 404.64,397.98 405.56,397.88 406.50,397.77 407.43,397.65 408.32,397.51 409.26,397.34 410.18,397.17 411.06,396.98 411.98,396.77 412.89,396.54 413.79,396.30 414.69,396.04 415.58,395.77 416.45,395.47 417.35,395.16 418.22,394.84 419.07,394.50 419.94,394.15 420.80,393.77 421.64,393.40 422.47,392.99 423.19,392.63 434.00,387.13 434.88,386.68 435.76,386.23 436.65,385.77 437.54,385.31 438.41,384.86 439.27,384.40 440.18,383.92 441.05,383.46 441.90,383.01 442.78,382.53 443.66,382.06 444.52,381.59 445.40,381.11 446.28,380.63 447.15,380.15 448.01,379.68 448.87,379.20 449.75,378.71 450.61,378.22 451.47,377.74 452.33,377.25 453.19,376.76 454.05,376.26 454.91,375.76 455.76,375.27 456.63,374.76 457.48,374.27 458.33,373.76 459.19,373.25 460.03,372.75 460.89,372.24 461.74,371.73 462.58,371.22 463.43,370.70 464.29,370.18 465.12,369.67 465.96,369.15 466.81,368.62 467.66,368.09 468.50,367.56 469.34,367.03 470.17,366.51 470.99,365.99 471.84,365.44 472.70,364.90 473.18,364.59 479.20,360.70 480.05,360.15 480.91,359.60 481.77,359.06 482.63,358.53 483.49,357.99 484.36,357.46 485.24,356.92 486.10,356.41 486.98,355.88 487.85,355.38 488.72,354.86 489.63,354.34 490.51,353.84 491.38,353.35 492.26,352.86 493.15,352.36 494.05,351.86 494.95,351.38 495.84,350.91 496.73,350.44 497.63,349.96 498.54,349.49 499.44,349.02 500.35,348.56 501.26,348.10 502.17,347.66 503.08,347.20 504.00,346.76 504.90,346.32 505.83,345.88 506.74,345.45 506.98,345.34 510.92,343.51 511.82,343.09 512.75,342.66 513.69,342.24 514.62,341.82 515.55,341.41 516.49,341.00 517.43,340.61 518.35,340.22 519.29,339.82 520.26,339.42 521.18,339.05 522.12,338.67 523.09,338.29 524.03,337.93 524.96,337.57 525.94,337.20 526.88,336.85 527.83,336.50 528.80,336.15 529.76,335.81 530.71,335.48 531.67,335.14 532.27,334.94 533.25,334.61 534.27,334.30 535.28,333.99 536.27,333.71 537.27,333.43 538.32,333.16 539.35,332.92 540.36,332.69 541.37,332.47 542.42,332.26 543.45,332.07 544.47,331.89 545.52,331.72 546.56,331.57 547.61,331.44 548.67,331.32 549.69,331.22 550.75,331.12 551.81,331.05 552.83,330.99 553.89,330.93 554.91,330.90 555.41,330.88 558.82,330.82" type="shoulder">
            <param key="origId" value="4_-2 1_-2"/>
        </lane>
        <lane id="-4_1" index="1" disallow="pedestrian tram rail_urban rail rail_electric rail_fast ship" speed="24.59" length="261.85" width="3.50" shape="312.93,398.80 321.01,398.86 322.02,398.87 323.01,398.88 324.05,398.88 325.05,398.89 326.04,398.89 327.04,398.89 328.03,398.89 329.02,398.88 329.13,398.88 330.13,398.87 331.14,398.86 341.26,398.78 363.35,398.60 364.35,398.59 365.35,398.59 366.35,398.58 367.35,398.58 368.36,398.57 369.37,398.58 369.70,398.58 370.71,398.58 371.73,398.59 372.73,398.61 373.73,398.63 374.74,398.65 375.75,398.68 376.75,398.71 377.76,398.74 378.77,398.78 379.78,398.82 380.78,398.87 381.78,398.92 382.79,398.97 383.79,399.03 384.80,399.09 385.81,399.16 386.80,399.23 387.81,399.30 388.82,399.39 389.83,399.47 390.83,399.56 391.83,399.65 392.83,399.74 393.82,399.83 394.82,399.92 395.15,399.95 396.12,400.03 397.09,400.09 398.05,400.14 399.01,400.17 399.98,400.18 400.95,400.17 401.92,400.15 402.88,400.10 403.86,400.04 404.82,399.97 405.78,399.87 406.75,399.75 407.71,399.63 408.65,399.48 409.62,399.31 410.57,399.13 411.50,398.93 412.45,398.71 413.39,398.48 414.33,398.22 415.26,397.95 416.19,397.67 417.10,397.37 418.02,397.04 418.93,396.71 419.82,396.36 420.72,395.99 421.61,395.60 422.49,395.21 423.35,394.78 424.10,394.41 434.91,388.91 435.79,388.46 436.68,388.01 437.57,387.55 438.46,387.09 439.34,386.63 440.21,386.16 441.11,385.69 441.98,385.23 442.85,384.77 443.73,384.29 444.61,383.82 445.48,383.34 446.36,382.86 447.24,382.39 448.11,381.91 448.98,381.43 449.84,380.94 450.72,380.45 451.59,379.97 452.45,379.48 453.32,378.98 454.18,378.49 455.05,377.99 455.91,377.49 456.77,377.00 457.64,376.49 458.49,375.99 459.35,375.48 460.21,374.97 461.06,374.47 461.92,373.95 462.77,373.44 463.62,372.92 464.47,372.40 465.33,371.88 466.17,371.37 467.01,370.85 467.86,370.32 468.71,369.79 469.56,369.26 470.40,368.73 471.24,368.20 472.07,367.67 472.92,367.13 473.77,366.58 474.26,366.27 480.28,362.38 481.13,361.84 481.98,361.29 482.83,360.76 483.68,360.23 484.54,359.69 485.40,359.16 486.27,358.64 487.13,358.13 488.00,357.60 488.86,357.10 489.73,356.59 490.61,356.08 491.49,355.59 492.36,355.10 493.23,354.60 494.12,354.11 495.01,353.62 495.90,353.15 496.78,352.67 497.67,352.20 498.56,351.73 499.46,351.27 500.35,350.80 501.25,350.35 502.15,349.89 503.05,349.45 503.96,349.00 504.87,348.56 505.77,348.12 506.68,347.69 507.59,347.27 507.82,347.15 511.76,345.32 512.66,344.90 513.58,344.48 514.50,344.06 515.43,343.65 516.35,343.25 517.28,342.84 518.21,342.45 519.13,342.06 520.06,341.66 521.01,341.28 521.93,340.91 522.86,340.53 523.81,340.16 524.75,339.80 525.68,339.44 526.64,339.07 527.57,338.73 528.52,338.38 529.47,338.03 530.42,337.70 531.37,337.37 532.32,337.04 532.90,336.84 533.87,336.52 534.86,336.21 535.84,335.91 536.82,335.64 537.79,335.36 538.80,335.10 539.80,334.86 540.79,334.64 541.78,334.43 542.80,334.22 543.80,334.04 544.80,333.86 545.82,333.70 546.83,333.56 547.85,333.42 548.88,333.31 549.88,333.21 550.91,333.12 551.94,333.04 552.94,332.98 553.97,332.93 554.98,332.90 555.45,332.88 558.86,332.82" type="driving">
            <param key="origId" value="4_-1 1_-1"/>
        </lane>
    </edge>
    <edge id="0" from="0.end" to="5" priority="1" type="shoulder|driving|driving" shape="288.62,0.00 288.16,378.71">
        <lane id="0_0" index="0" disallow="all" speed="24.59" length="378.71" width="0.50" shape="295.87,0.01 295.41,378.72" type="shoulder">
            <param key="origId" value="0_3"/>
        </lane>
        <lane id="0_1" index="1" disallow="pedestrian tram rail_urban rail rail_electric rail_fast ship" speed="24.59" length="378.71" width="3.50" shape="293.87,0.01 293.41,378.72" type="driving">
            <param key="origId" value="0_2"/>
        </lane>
        <lane id="0_2" index="2" disallow="pedestrian tram rail_urban rail rail_electric rail_fast ship" speed="24.59" length="378.71" width="3.50" shape="290.37,0.00 289.91,378.71" type="driving">
            <param key="origId" value="0_1"/>
        </lane>
    </edge>
    <edge id="1" from="1.end" to="5" priority="1" type="shoulder|driving|driving" shape="558.89,334.57 555.49,334.63 555.04,334.65 554.04,334.68 553.04,334.73 552.05,334.79 551.05,334.86 550.05,334.95 549.06,335.05 548.06,335.16 547.07,335.29 546.08,335.43 545.09,335.59 544.11,335.76 543.13,335.94 542.14,336.14 541.17,336.35 540.19,336.57 539.22,336.80 538.25,337.05 537.29,337.32 536.33,337.59 535.37,337.88 534.41,338.18 533.46,338.50 532.89,338.69 531.95,339.02 531.00,339.35 530.06,339.68 529.12,340.02 528.18,340.37 527.25,340.71 526.31,341.07 525.38,341.43 524.44,341.79 523.51,342.15 522.59,342.53 521.66,342.90 520.73,343.28 519.81,343.67 518.89,344.06 517.97,344.45 517.05,344.85 516.14,345.25 515.22,345.66 514.31,346.07 513.40,346.49 512.50,346.91 508.56,348.74 508.33,348.85 507.43,349.27 506.53,349.70 505.63,350.14 504.73,350.57 503.83,351.02 502.93,351.46 502.04,351.91 501.15,352.36 500.26,352.82 499.37,353.28 498.49,353.75 497.60,354.22 496.72,354.69 495.84,355.16 494.97,355.64 494.09,356.13 493.22,356.62 492.35,357.11 491.48,357.60 490.61,358.10 489.75,358.61 488.89,359.11 488.03,359.63 487.17,360.14 486.31,360.66 485.46,361.18 484.61,361.71 483.76,362.24 482.92,362.77 482.07,363.31 481.23,363.85 475.21,367.74 474.71,368.06 473.86,368.60 473.02,369.14 472.18,369.68 471.33,370.21 470.49,370.74 469.64,371.27 468.79,371.80 467.94,372.33 467.09,372.86 466.24,373.38 465.38,373.90 464.53,374.42 463.67,374.94 462.82,375.45 461.96,375.97 461.10,376.48 460.24,376.99 459.38,377.50 458.52,378.00 457.65,378.51 456.79,379.01 455.92,379.51 455.05,380.01 454.19,380.50 453.32,381.00 452.45,381.49 451.58,381.98 450.70,382.47 449.83,382.96 448.95,383.44 448.08,383.92 447.20,384.40 446.32,384.88 445.44,385.36 444.56,385.83 443.68,386.31 442.80,386.78 441.92,387.24 441.03,387.71 440.15,388.18 439.26,388.64 438.37,389.10 437.48,389.56 436.59,390.02 435.70,390.47 424.89,395.97 424.13,396.35 423.23,396.79 422.32,397.20 421.40,397.60 420.48,397.98 419.55,398.35 418.61,398.69 417.67,399.02 416.72,399.34 415.76,399.63 414.80,399.91 413.83,400.17 412.86,400.41 411.89,400.64 410.91,400.85 409.93,401.03 408.94,401.21 407.96,401.36 406.97,401.49 405.97,401.61 404.98,401.71 403.98,401.79 402.98,401.85 401.98,401.90 400.98,401.92 399.98,401.93 398.98,401.92 397.98,401.89 396.99,401.84 395.99,401.78 394.99,401.69 394.66,401.66 393.66,401.57 392.67,401.48 391.67,401.39 390.67,401.30 389.68,401.21 388.68,401.13 387.68,401.05 386.68,400.98 385.69,400.91 384.69,400.84 383.69,400.78 382.69,400.72 381.69,400.67 380.69,400.62 379.70,400.57 378.70,400.53 377.70,400.49 376.70,400.46 375.70,400.43 374.70,400.40 373.70,400.38 372.70,400.36 371.70,400.34 370.70,400.33 369.70,400.33 369.36,400.33 368.36,400.32 367.36,400.33 366.36,400.33 365.36,400.34 364.36,400.34 363.36,400.35 341.27,400.53 331.15,400.61 330.15,400.62 329.15,400.63 329.04,400.63 328.04,400.64 327.04,400.64 326.04,400.64 325.04,400.64 324.04,400.63 323.00,400.63 322.00,400.62 321.00,400.61 312.92,400.55">
        <lane id="1_0" index="0" disallow="all" speed="24.59" length="262.04" width="0.50" shape="559.02,341.82 555.64,341.88 555.29,341.90 554.33,341.92 553.44,341.97 552.52,342.02 551.63,342.09 550.74,342.17 549.82,342.26 548.93,342.36 548.05,342.47 547.17,342.60 546.29,342.74 545.38,342.90 544.50,343.06 543.62,343.24 542.73,343.43 541.82,343.63 540.96,343.84 540.14,344.05 539.25,344.30 538.36,344.55 537.50,344.81 536.65,345.08 535.77,345.37 535.25,345.54 534.34,345.86 533.39,346.19 532.49,346.51 531.62,346.83 530.69,347.17 529.79,347.50 528.92,347.84 527.99,348.20 527.05,348.56 526.20,348.88 525.31,349.25 524.37,349.62 523.52,349.97 522.64,350.35 521.72,350.74 520.83,351.11 519.95,351.49 519.07,351.88 518.18,352.28 517.32,352.67 516.45,353.07 515.56,353.48 511.62,355.31 511.41,355.41 510.53,355.83 509.68,356.23 508.78,356.67 507.91,357.08 507.04,357.52 506.16,357.95 505.31,358.38 504.45,358.82 503.59,359.26 502.74,359.70 501.89,360.15 501.00,360.62 500.14,361.09 499.30,361.53 498.48,361.98 497.63,362.46 496.78,362.94 495.91,363.43 495.07,363.90 494.27,364.36 493.42,364.86 492.59,365.35 491.75,365.85 490.89,366.36 490.08,366.85 489.27,367.35 488.45,367.86 487.61,368.38 486.80,368.90 485.97,369.42 485.16,369.94 479.14,373.83 478.61,374.17 477.76,374.71 476.94,375.24 476.06,375.81 475.18,376.35 474.34,376.88 473.48,377.42 472.63,377.95 471.78,378.48 470.90,379.03 470.01,379.57 469.15,380.09 468.30,380.61 467.41,381.15 466.56,381.66 465.68,382.19 464.80,382.72 463.94,383.23 463.05,383.75 462.18,384.26 461.31,384.77 460.42,385.29 459.53,385.80 458.65,386.30 457.79,386.79 456.91,387.30 456.01,387.81 455.12,388.31 454.24,388.80 453.34,389.30 452.44,389.80 451.57,390.28 450.67,390.76 449.79,391.24 448.88,391.74 448.00,392.21 447.12,392.69 446.19,393.19 445.29,393.66 444.43,394.11 443.52,394.60 442.59,395.08 441.70,395.54 440.81,396.00 439.89,396.48 438.99,396.93 428.17,402.43 427.34,402.85 426.31,403.35 425.25,403.83 424.23,404.28 423.20,404.70 422.12,405.13 421.04,405.52 420.03,405.88 418.93,406.25 417.82,406.58 416.75,406.89 415.64,407.19 414.57,407.46 413.49,407.71 412.32,407.96 411.23,408.16 410.14,408.36 408.98,408.54 407.87,408.68 406.77,408.82 405.63,408.93 404.49,409.02 403.38,409.09 402.23,409.15 401.09,409.17 399.98,409.18 398.84,409.17 397.69,409.13 396.59,409.08 395.45,409.01 394.34,408.91 394.01,408.88 393.01,408.79 392.02,408.70 391.02,408.61 390.02,408.52 389.06,408.43 388.10,408.36 387.14,408.28 386.17,408.21 385.18,408.14 384.22,408.07 383.26,408.02 382.29,407.96 381.33,407.91 380.33,407.86 379.37,407.81 378.41,407.77 377.45,407.74 376.48,407.71 375.48,407.68 374.52,407.65 373.56,407.63 372.56,407.61 371.59,407.59 370.66,407.58 369.70,407.58 369.31,407.58 368.36,407.57 367.40,407.58 366.40,407.58 365.40,407.59 364.40,407.59 363.42,407.60 341.33,407.78 331.21,407.86 330.22,407.87 329.22,407.88 329.11,407.88 328.08,407.89 327.04,407.89 326.04,407.89 325.00,407.89 324.00,407.88 322.96,407.88 321.93,407.87 320.94,407.86 312.87,407.80" type="shoulder">
            <param key="origId" value="1_3 4_3"/>
        </lane>
        <lane id="1_1" index="1" disallow="pedestrian tram rail_urban rail rail_electric rail_fast ship" speed="24.59" length="262.04" width="3.50" shape="558.98,339.82 555.60,339.88 555.22,339.90 554.25,339.93 553.33,339.97 552.39,340.03 551.47,340.09 550.55,340.18 549.61,340.27 548.69,340.37 547.78,340.49 546.87,340.62 545.96,340.77 545.03,340.93 544.12,341.09 543.21,341.28 542.30,341.48 541.37,341.69 540.48,341.90 539.62,342.12 538.71,342.37 537.80,342.63 536.91,342.90 536.03,343.17 535.13,343.48 534.60,343.65 533.68,343.98 532.73,344.31 531.82,344.63 530.93,344.95 530.00,345.30 529.09,345.63 528.20,345.97 527.27,346.33 526.33,346.69 525.46,347.02 524.56,347.40 523.62,347.77 522.75,348.13 521.86,348.50 520.94,348.89 520.04,349.27 519.15,349.66 518.26,350.05 517.37,350.45 516.49,350.85 515.61,351.25 514.71,351.67 510.77,353.50 510.56,353.60 509.67,354.02 508.81,354.43 507.91,354.87 507.04,355.29 506.16,355.73 505.27,356.16 504.41,356.60 503.54,357.03 502.67,357.48 501.81,357.93 500.95,358.39 500.06,358.86 499.19,359.32 498.34,359.77 497.52,360.23 496.66,360.71 495.80,361.19 494.93,361.68 494.08,362.16 493.26,362.63 492.41,363.14 491.57,363.63 490.73,364.13 489.87,364.64 489.04,365.15 488.22,365.65 487.39,366.16 486.55,366.69 485.73,367.21 484.90,367.73 484.08,368.26 478.06,372.15 477.53,372.49 476.69,373.02 475.86,373.56 474.99,374.12 474.12,374.66 473.28,375.19 472.42,375.72 471.57,376.25 470.72,376.78 469.85,377.33 468.97,377.87 468.11,378.39 467.26,378.91 466.38,379.44 465.53,379.95 464.66,380.47 463.78,381.00 462.92,381.51 462.04,382.03 461.17,382.53 460.30,383.04 459.42,383.56 458.54,384.06 457.66,384.57 456.80,385.06 455.92,385.56 455.03,386.06 454.15,386.56 453.27,387.05 452.38,387.55 451.48,388.04 450.61,388.52 449.71,389.01 448.83,389.49 447.93,389.98 447.05,390.45 446.17,390.93 445.25,391.42 444.36,391.89 443.49,392.35 442.59,392.83 441.67,393.30 440.78,393.76 439.89,394.22 438.98,394.69 438.08,395.15 427.27,400.65 426.46,401.06 425.46,401.54 424.44,402.00 423.45,402.43 422.45,402.85 421.41,403.26 420.37,403.64 419.38,403.98 418.32,404.34 417.25,404.66 416.21,404.97 415.14,405.25 414.10,405.51 413.05,405.76 411.93,406.00 410.87,406.19 409.81,406.39 408.70,406.56 407.62,406.70 406.55,406.83 405.45,406.94 404.35,407.03 403.27,407.09 402.16,407.15 401.06,407.17 399.98,407.18 398.88,407.17 397.77,407.14 396.70,407.08 395.60,407.02 394.52,406.92 394.19,406.89 393.19,406.80 392.20,406.71 391.20,406.62 390.20,406.53 389.23,406.44 388.26,406.36 387.29,406.29 386.31,406.22 385.32,406.15 384.35,406.08 383.38,406.02 382.40,405.96 381.43,405.91 380.43,405.86 379.46,405.81 378.49,405.78 377.52,405.74 376.54,405.71 375.54,405.68 374.57,405.65 373.60,405.63 372.60,405.61 371.62,405.59 370.67,405.58 369.70,405.58 369.32,405.58 368.36,405.57 367.39,405.58 366.39,405.58 365.39,405.59 364.39,405.59 363.40,405.60 341.31,405.78 331.19,405.86 330.20,405.87 329.20,405.88 329.09,405.88 328.07,405.89 327.04,405.89 326.04,405.89 325.01,405.89 324.01,405.88 322.97,405.88 321.95,405.87 320.96,405.86 312.88,405.80" type="driving">
            <param key="origId" value="1_2 4_2"/>
        </lane>