<?xml version="1.0" encoding="UTF-8"?>

<!-- generated on 2024-06-12 16:43:10 by Eclipse SUMO netedit Version 1.19.0
-->

<routes xmlns:xsi="http://www.w3.org/2001/XMLSchema-instance" xsi:noNamespaceSchemaLocation="http://sumo.dlr.de/xsd/routes_file.xsd">
    <!-- Vehicles, persons and containers (sorted by depart) -->
    <flow id="f_0" begin="0.00" end="3600.00" probability="0.25">
        <route edges="-6 -1 -4"/>
    </flow>
    <flow id="f_1" begin="0.00" end="3600.00" probability="0.25">
        <route edges="4 1 6"/>
    </flow>
    <flow id="f_10" begin="0.00" end="3600.00" probability="0.02">
        <route edges="4 -0"/>
    </flow>
    <flow id="f_11" begin="0.00" end="3600.00" probability="0.015">
        <route edges="4 1 -3"/>
    </flow>
    <flow id="f_12" begin="0.00" end="3600.00" probability="0.008">
        <route edges="-6 -5 5"/>
    </flow>
    <flow id="f_13" begin="0.00" end="3600.00" probability="0.015">
        <route edges="-6 -3"/>
    </flow>
    <flow id="f_14" begin="0.00" end="3600.00" probability="0.02">
        <route edges="-6 -1 -2"/>
    </flow>
    <flow id="f_15" begin="0.00" end="3600.00" probability="0.008">
        <route edges="-6 -1 -0"/>
    </flow>
    <flow id="f_16" begin="0.00" end="3600.00" probability="0.015">
        <route edges="0 1 -5"/>
    </flow>
    <flow id="f_17" begin="0.00" end="3600.00" probability="0.0075">
        <route edges="2 -0"/>
    </flow>
    <flow id="f_18" begin="0.00" end="3600.00" probability="0.01">
        <route edges="0 -2"/>
    </flow>
    <flow id="f_2" begin="0.00" end="3600.00" probability="0.06">
        <route edges="5 -3"/>
    </flow>
    <flow id="f_3" begin="0.00" end="3600.00" probability="0.03">
        <route edges="3 -5"/>
    </flow>
    <flow id="f_4" begin="0.00" end="3600.00" probability="0.04">
        <route edges="2 1 6"/>
    </flow>
    <flow id="f_5" begin="0.00" end="3600.00" probability="0.015">
        <route edges="3 -1 -0"/>
    </flow>
    <flow id="f_6" begin="0.00" end="3600.00" probability="0.012">
        <route edges="5 -1 -0"/>
    </flow>
    <flow id="f_7" begin="0.00" end="3600.00" probability="0.008">
        <route edges="2 1 -3"/>
    </flow>
    <flow id="f_8" begin="0.00" end="3600.00" probability="0.015">
        <route edges="4 -2"/>
    </flow>
    <flow id="f_9" begin="0.00" end="3600.00" probability="0.007">
        <route edges="4 1 -5"/>
    </flow>
</routes>
