<?xml version="1.0" encoding="UTF-8"?>

<!-- generated on 2024-05-31 12:15:25 by Eclipse SUMO duarouter Version 1.19.0
<configuration xmlns:xsi="http://www.w3.org/2001/XMLSchema-instance" xsi:noNamespaceSchemaLocation="http://sumo.dlr.de/xsd/duarouterConfiguration.xsd">

    <input>
        <net-file value="StoneChurch.net.xml"/>
        <route-files value="StoneChurch.trips.xml"/>
    </input>

    <output>
        <output-file value="StoneChurch.rou.xml"/>
    </output>

    <report>
        <ignore-errors value="true"/>
    </report>

</configuration>
-->

<routes xmlns:xsi="http://www.w3.org/2001/XMLSchema-instance" xsi:noNamespaceSchemaLocation="http://sumo.dlr.de/xsd/routes_file.xsd">
    <vehicle id="0" depart="0.00">
        <route edges="E22 E20 -E19"/>
    </vehicle>
    <vehicle id="1" depart="1.00">
        <route edges="-E31 -E30 -E29"/>
    </vehicle>
    <vehicle id="2" depart="2.00">
        <route edges="E26 E25 E27"/>
    </vehicle>
    <vehicle id="4" depart="4.00">
        <route edges="E13 E14 -E19"/>
    </vehicle>
    <vehicle id="7" depart="7.00">
        <route edges="E22 E20 -E19 E21"/>
    </vehicle>
    <vehicle id="8" depart="8.00">
        <route edges="-E29 -E24 -E21 E19 E23"/>
    </vehicle>
    <vehicle id="11" depart="11.00">
        <route edges="-E33 -E32 -E30 -E29 -E25 -E26"/>
    </vehicle>
    <vehicle id="13" depart="13.00">
        <route edges="-E24"/>
    </vehicle>
    <vehicle id="20" depart="20.00">
        <route edges="E25 -E24 -E21"/>
    </vehicle>
    <vehicle id="25" depart="25.00">
        <route edges="-E34 -E33 -E32 -E30 -E29"/>
    </vehicle>
    <vehicle id="26" depart="26.00">
        <route edges="-E31 E35"/>
    </vehicle>
    <vehicle id="27" depart="27.00">
        <route edges="E22 E20 -E19 E21 E24"/>
    </vehicle>
    <vehicle id="29" depart="29.00">
        <route edges="-E27 -E24 -E21 E19 E15"/>
    </vehicle>
    <vehicle id="32" depart="32.00">
        <route edges="E30"/>
    </vehicle>
    <vehicle id="34" depart="34.00">
        <route edges="-E32"/>
    </vehicle>
    <vehicle id="37" depart="37.00">
        <route edges="E22 E20 E15"/>
    </vehicle>
    <vehicle id="39" depart="39.00">
        <route edges="-E30"/>
    </vehicle>
    <vehicle id="41" depart="41.00">
        <route edges="E20 -E19 E21 E24 E29 E30 E32 E33"/>
    </vehicle>
    <vehicle id="42" depart="42.00">
        <route edges="-E34 -E33 -E32 -E30 -E29"/>
    </vehicle>
    <vehicle id="44" depart="44.00">
        <route edges="-E24 -E21"/>
    </vehicle>
    <vehicle id="47" depart="47.00">
        <route edges="-E21 E19 E15"/>
    </vehicle>
    <vehicle id="49" depart="49.00">
        <route edges="E37 E32"/>
    </vehicle>
    <vehicle id="50" depart="50.00">
        <route edges="-E19 E21 E24 E27 E28"/>
    </vehicle>
    <vehicle id="54" depart="54.00">
        <route edges="E14 -E19 E21 E24 E29 E30 E35"/>
    </vehicle>
    <vehicle id="57" depart="57.00">
        <route edges="E33"/>
    </vehicle>
    <vehicle id="59" depart="59.00">
        <route edges="E21 E24 -E25 -E26"/>
    </vehicle>
    <vehicle id="63" depart="63.00">
        <route edges="-E19 E21 E24 E29 E30 E32 E33 E34"/>
    </vehicle>
    <vehicle id="65" depart="65.00">
        <route edges="-E32 -E30 -E29 -E24 -E21"/>
    </vehicle>
    <vehicle id="67" depart="67.00">
        <route edges="-E24 -E21 E19"/>
    </vehicle>
    <vehicle id="70" depart="70.00">
        <route edges="E17 E18 -E19 E21"/>
    </vehicle>
    <vehicle id="78" depart="78.00">
        <route edges="-E33 -E32 -E30 -E29 -E24 -E21 E19 E23"/>
    </vehicle>
    <vehicle id="79" depart="79.00">
        <route edges="-E29"/>
    </vehicle>
    <vehicle id="83" depart="83.00">
        <route edges="-E30 -E29 E27"/>
    </vehicle>
    <vehicle id="84" depart="84.00">
        <route edges="-E29 -E25"/>
    </vehicle>
    <vehicle id="85" depart="85.00">
        <route edges="E36 E37 -E30 -E29 -E24 -E21 E19 E23"/>
    </vehicle>
    <vehicle id="86" depart="86.00">
        <route edges="E17 E18 -E19 E21 E24 E29 E30"/>
    </vehicle>
    <vehicle id="88" depart="88.00">
        <route edges="-E24 -E21 E19 E16"/>
    </vehicle>
    <vehicle id="90" depart="90.00">
        <route edges="E25 E27"/>
    </vehicle>
    <vehicle id="91" depart="91.00">
        <route edges="E37 -E30 -E29 -E24"/>
    </vehicle>
    <vehicle id="92" depart="92.00">
        <route edges="E13 E14"/>
    </vehicle>
    <vehicle id="97" depart="97.00">
        <route edges="E14 -E19 E21 E24 E29 E30 E32"/>
    </vehicle>
    <vehicle id="99" depart="99.00">
        <route edges="E37 E32"/>
    </vehicle>
    <vehicle id="100" depart="100.00">
        <route edges="E37 E32 E33 E34"/>
    </vehicle>
    <vehicle id="106" depart="106.00">
        <route edges="E14 E16"/>
    </vehicle>
    <vehicle id="107" depart="107.00">
        <route edges="E36 E37"/>
    </vehicle>
    <vehicle id="110" depart="110.00">
        <route edges="E37 -E30 -E29 -E24 -E21 E19 E23"/>
    </vehicle>
    <vehicle id="112" depart="112.00">
        <route edges="-E21 E19 E23"/>
    </vehicle>
    <vehicle id="113" depart="113.00">
        <route edges="E18 -E19 E21 E24 E29 E30 E32"/>
    </vehicle>
    <vehicle id="114" depart="114.00">
        <route edges="-E27 E29 E30 E35"/>
    </vehicle>
    <vehicle id="116" depart="116.00">
        <route edges="E20 -E19 E21 E24 E27"/>
    </vehicle>
    <vehicle id="117" depart="117.00">
        <route edges="-E30 -E29 -E25"/>
    </vehicle>
    <vehicle id="119" depart="119.00">
        <route edges="E20 -E19 E21 E24"/>
    </vehicle>
    <vehicle id="120" depart="120.00">
        <route edges="E13 E14 E23"/>
    </vehicle>
    <vehicle id="121" depart="121.00">
        <route edges="E18 -E19 E21 E24 E29 E30 E35"/>
    </vehicle>
    <vehicle id="122" depart="122.00">
        <route edges="-E29 E27 E28"/>
    </vehicle>
    <vehicle id="123" depart="123.00">
        <route edges="-E30 -E29 -E24 -E21 E19 E15"/>
    </vehicle>
    <vehicle id="127" depart="127.00">
        <route edges="E37"/>
    </vehicle>
    <vehicle id="130" depart="130.00">
        <route edges="E32 E33"/>
    </vehicle>
    <vehicle id="131" depart="131.00">
        <route edges="-E34 -E33 -E32 -E30 -E29 -E25 -E26"/>
    </vehicle>
    <vehicle id="134" depart="134.00">
        <route edges="E22 E20 -E19"/>
    </vehicle>
    <vehicle id="136" depart="136.00">
        <route edges="E22 E20 -E19 E21 E24 E29 E30 E35"/>
    </vehicle>
    <vehicle id="137" depart="137.00">
        <route edges="-E27 -E25"/>
    </vehicle>
    <vehicle id="142" depart="142.00">
        <route edges="E17 E18 -E19 E21 E24 E29 E30 E32 E33 E34"/>
    </vehicle>
    <vehicle id="145" depart="145.00">
        <route edges="-E19 E21 E24 E29 E30"/>
    </vehicle>
    <vehicle id="148" depart="148.00">
        <route edges="E13 E14 -E19"/>
    </vehicle>
    <vehicle id="152" depart="152.00">
        <route edges="-E27 -E25"/>
    </vehicle>
    <vehicle id="156" depart="156.00">
        <route edges="-E30 -E29 -E25"/>
    </vehicle>
    <vehicle id="158" depart="158.00">
        <route edges="E13 E14 -E19 E21 E24"/>
    </vehicle>
    <vehicle id="159" depart="159.00">
        <route edges="-E27 E29 E30 E32 E33 E34"/>
    </vehicle>
    <vehicle id="161" depart="161.00">
        <route edges="E29 E30 E32 E33"/>
    </vehicle>
    <vehicle id="162" depart="162.00">
        <route edges="-E19 E21 E24 E29"/>
    </vehicle>
    <vehicle id="164" depart="164.00">
        <route edges="E29 E30 E32"/>
    </vehicle>
    <vehicle id="167" depart="167.00">
        <route edges="E32"/>
    </vehicle>
    <vehicle id="174" depart="174.00">
        <route edges="E22 E20 E15"/>
    </vehicle>
    <vehicle id="176" depart="176.00">
        <route edges="E36 E37 -E30 -E29 -E25"/>
    </vehicle>
    <vehicle id="178" depart="178.00">
        <route edges="E36 E37 -E30"/>
    </vehicle>
    <vehicle id="182" depart="182.00">
        <route edges="-E34 -E33 -E32 -E30 -E29 -E24 -E21 E19 E23"/>
    </vehicle>
    <vehicle id="183" depart="183.00">
        <route edges="-E30 -E29 E27 E28"/>
    </vehicle>
    <vehicle id="184" depart="184.00">
        <route edges="-E19 E21 E24 E29 E30 E32 E33 E34"/>
    </vehicle>
    <vehicle id="186" depart="186.00">
        <route edges="E26 E25 E27"/>
    </vehicle>
    <vehicle id="187" depart="187.00">
        <route edges="-E33 -E32 -E30 -E29 -E24"/>
    </vehicle>
    <vehicle id="191" depart="191.00">
        <route edges="-E32 -E30 -E29 -E24 -E21 E19 E16"/>
    </vehicle>
    <vehicle id="194" depart="194.00">
        <route edges="E36 E37 -E30 -E29 E27"/>
    </vehicle>
    <vehicle id="198" depart="198.00">
        <route edges="E13 E14 E23"/>
    </vehicle>
    <vehicle id="201" depart="201.00">
        <route edges="E17 E18 -E19 E21 E24 E29 E30 E32 E33 E34"/>
    </vehicle>
    <vehicle id="205" depart="205.00">
        <route edges="E29"/>
    </vehicle>
    <vehicle id="208" depart="208.00">
        <route edges="-E30 -E29 -E24 -E21 E19"/>
    </vehicle>
    <vehicle id="210" depart="210.00">
        <route edges="E13 E14 -E19 E21 E24"/>
    </vehicle>
    <vehicle id="213" depart="213.00">
        <route edges="E22 E20 -E19"/>
    </vehicle>
    <vehicle id="214" depart="214.00">
        <route edges="E26 E25 E29 E30"/>
    </vehicle>
    <vehicle id="216" depart="216.00">
        <route edges="-E28 -E27 E29 E30 E35"/>
    </vehicle>
    <vehicle id="219" depart="219.00">
        <route edges="E14 -E19 E21 E24 E29 E30 E31"/>
    </vehicle>
    <vehicle id="221" depart="221.00">
        <route edges="E20 -E19 E21 E24 E29 E30 E35"/>
    </vehicle>
    <vehicle id="233" depart="233.00">
        <route edges="-E29 E27"/>
    </vehicle>
    <vehicle id="234" depart="234.00">
        <route edges="E25 -E24 -E21"/>
    </vehicle>
    <vehicle id="235" depart="235.00">
        <route edges="E13 E14 -E19 E21"/>
    </vehicle>
    <vehicle id="237" depart="237.00">
        <route edges="E13 E14 -E19 E21 E24 E29 E30 E32 E33 E34"/>
    </vehicle>
    <vehicle id="238" depart="238.00">
        <route edges="E20 -E19 E21 E24 E27"/>
    </vehicle>
    <vehicle id="242" depart="242.00">
        <route edges="E30 E35"/>
    </vehicle>
    <vehicle id="243" depart="243.00">
        <route edges="E13 E14 -E19 E21 E24 E29"/>
    </vehicle>
    <vehicle id="245" depart="245.00">
        <route edges="-E29"/>
    </vehicle>
    <vehicle id="246" depart="246.00">
        <route edges="E14 -E19"/>
    </vehicle>
    <vehicle id="247" depart="247.00">
        <route edges="-E33 -E32 -E30 -E29 E27"/>
    </vehicle>
    <vehicle id="248" depart="248.00">
        <route edges="E13 E14 -E19 E21 E24 -E25 -E26"/>
    </vehicle>
    <vehicle id="249" depart="249.00">
        <route edges="E17 E18 -E19 E21 E24 -E25"/>
    </vehicle>
    <vehicle id="254" depart="254.00">
        <route edges="-E21 E19 E15"/>
    </vehicle>
    <vehicle id="256" depart="256.00">
        <route edges="E26 E25 -E24 -E21 E19 E15"/>
    </vehicle>
    <vehicle id="257" depart="257.00">
        <route edges="E26 E25 E29 E30 E31"/>
    </vehicle>
    <vehicle id="258" depart="258.00">
        <route edges="-E30 -E29 -E24"/>
    </vehicle>
    <vehicle id="259" depart="259.00">
        <route edges="-E19 E21"/>
    </vehicle>
    <vehicle id="261" depart="261.00">
        <route edges="E22 E20 -E19 E21 E24 E29 E30"/>
    </vehicle>
    <vehicle id="262" depart="262.00">
        <route edges="E22 E20 -E19 E21 E24 E29"/>
    </vehicle>
    <vehicle id="264" depart="264.00">
        <route edges="-E19 E21 E24 -E25 -E26"/>
    </vehicle>
    <vehicle id="267" depart="267.00">
        <route edges="E24 E29 E30"/>
    </vehicle>
    <vehicle id="270" depart="270.00">
        <route edges="E29 E30 E35"/>
    </vehicle>
    <vehicle id="272" depart="272.00">
        <route edges="-E32 -E30 -E29 E27"/>
    </vehicle>
    <vehicle id="273" depart="273.00">
        <route edges="E36 E37 -E30 -E29 -E24 -E21 E19 E15"/>
    </vehicle>
    <vehicle id="274" depart="274.00">
        <route edges="E25 -E24"/>
    </vehicle>
    <vehicle id="275" depart="275.00">
        <route edges="E24"/>
    </vehicle>
    <vehicle id="282" depart="282.00">
        <route edges="E30 E31"/>
    </vehicle>
    <vehicle id="284" depart="284.00">
        <route edges="E22 E20 -E19 E21 E24 E29 E30 E31"/>
    </vehicle>
    <vehicle id="286" depart="286.00">
        <route edges="E26 E25 E29 E30 E35"/>
    </vehicle>
    <vehicle id="288" depart="288.00">
        <route edges="E19"/>
    </vehicle>
    <vehicle id="289" depart="289.00">
        <route edges="E14 -E19 E21 E24 E27 E28"/>
    </vehicle>
    <vehicle id="290" depart="290.00">
        <route edges="-E31 E32"/>
    </vehicle>
    <vehicle id="293" depart="293.00">
        <route edges="E14 -E19 E21 E24"/>
    </vehicle>
    <vehicle id="299" depart="299.00">
        <route edges="-E19 E21 E24 E29 E30 E35"/>
    </vehicle>
    <vehicle id="301" depart="301.00">
        <route edges="E17 E18 -E19 E21 E24 E29"/>
    </vehicle>
    <vehicle id="303" depart="303.00">
        <route edges="E17 E18 -E19 E21 E24 E29 E30"/>
    </vehicle>
    <vehicle id="310" depart="310.00">
        <route edges="-E30 -E29 -E25"/>
    </vehicle>
    <vehicle id="311" depart="311.00">
        <route edges="-E28 -E27 -E25"/>
    </vehicle>
    <vehicle id="314" depart="314.00">
        <route edges="E17 E18 -E19 E21 E24 E27 E28"/>
    </vehicle>
    <vehicle id="316" depart="316.00">
        <route edges="-E31 -E30 -E29 -E25"/>
    </vehicle>
    <vehicle id="321" depart="321.00">
        <route edges="E24 -E25"/>
    </vehicle>
    <vehicle id="324" depart="324.00">
        <route edges="E17 E18"/>
    </vehicle>
    <vehicle id="325" depart="325.00">
        <route edges="-E28 -E27 -E24 -E21"/>
    </vehicle>
    <vehicle id="326" depart="326.00">
        <route edges="E36 E37 -E30 -E29 -E24 -E21 E19"/>
    </vehicle>
    <vehicle id="331" depart="331.00">
        <route edges="E37 -E30 -E29 -E25"/>
    </vehicle>
    <vehicle id="334" depart="334.00">
        <route edges="E18"/>
    </vehicle>
    <vehicle id="335" depart="335.00">
        <route edges="E14 -E19 E21 E24 E29 E30 E32"/>
    </vehicle>
    <vehicle id="337" depart="337.00">
        <route edges="E21 E24"/>
    </vehicle>
    <vehicle id="338" depart="338.00">
        <route edges="E26 E25 E29 E30 E35"/>
    </vehicle>
    <vehicle id="339" depart="339.00">
        <route edges="-E29"/>
    </vehicle>
    <vehicle id="340" depart="340.00">
        <route edges="E22 E20 -E19 E21 E24 -E25 -E26"/>
    </vehicle>
    <vehicle id="341" depart="341.00">
        <route edges="-E28 -E27 -E24"/>
    </vehicle>
    <vehicle id="344" depart="344.00">
        <route edges="-E29 E27 E28"/>
    </vehicle>
    <vehicle id="346" depart="346.00">
        <route edges="E24 E29 E30 E32 E33 E34"/>
    </vehicle>
    <vehicle id="348" depart="348.00">
        <route edges="E22 E20 -E19 E21 E24 E29 E30 E35"/>
    </vehicle>
    <vehicle id="349" depart="349.00">
        <route edges="E13 E14 -E19 E21"/>
    </vehicle>
    <vehicle id="350" depart="350.00">
        <route edges="E22 E20 -E19 E21 E24 E29 E30 E32 E33 E34"/>
    </vehicle>
    <vehicle id="353" depart="353.00">
        <route edges="E26 E25 -E24 -E21 E19 E23"/>
    </vehicle>
    <vehicle id="354" depart="354.00">
        <route edges="-E31 -E30 -E29 -E25"/>
    </vehicle>
    <vehicle id="355" depart="355.00">
        <route edges="E24 E27"/>
    </vehicle>
    <vehicle id="358" depart="358.00">
        <route edges="-E21 E19 E16"/>
    </vehicle>
    <vehicle id="359" depart="359.00">
        <route edges="-E32 -E30"/>
    </vehicle>
    <vehicle id="362" depart="362.00">
        <route edges="E36 E37"/>
    </vehicle>
    <vehicle id="369" depart="369.00">
        <route edges="-E33"/>
    </vehicle>
    <vehicle id="370" depart="370.00">
        <route edges="E24 E29 E30 E32"/>
    </vehicle>
    <vehicle id="371" depart="371.00">
        <route edges="-E32 -E30 -E29 E27"/>
    </vehicle>
    <vehicle id="372" depart="372.00">
        <route edges="-E31 E35"/>
    </vehicle>
    <vehicle id="378" depart="378.00">
        <route edges="E19 E16"/>
    </vehicle>
    <vehicle id="383" depart="383.00">
        <route edges="E14 -E19 E21 E24 E27"/>
    </vehicle>
    <vehicle id="388" depart="388.00">
        <route edges="E37 E32 E33 E34"/>
    </vehicle>
    <vehicle id="389" depart="389.00">
        <route edges="E14 -E19 E21 E24 -E25"/>
    </vehicle>
    <vehicle id="392" depart="392.00">
        <route edges="-E31 E32"/>
    </vehicle>
    <vehicle id="393" depart="393.00">
        <route edges="E37 -E30"/>
    </vehicle>
    <vehicle id="394" depart="394.00">
        <route edges="E19 E15"/>
    </vehicle>
    <vehicle id="396" depart="396.00">
        <route edges="E32"/>
    </vehicle>
    <vehicle id="398" depart="398.00">
        <route edges="E13 E14 -E19 E21 E24 E29 E30 E35"/>
    </vehicle>
    <vehicle id="399" depart="399.00">
        <route edges="E18 -E19 E21 E24 E29 E30 E31"/>
    </vehicle>
    <vehicle id="402" depart="402.00">
        <route edges="E17 E18 -E19 E21 E24 -E25 -E26"/>
    </vehicle>
    <vehicle id="409" depart="409.00">
        <route edges="E26 E25 E27 E28"/>
    </vehicle>
    <vehicle id="411" depart="411.00">
        <route edges="E22 E20 -E19 E21 E24 E29 E30 E31"/>
    </vehicle>
    <vehicle id="412" depart="412.00">
        <route edges="E37 -E30 -E29 -E24 -E21 E19"/>
    </vehicle>
    <vehicle id="414" depart="414.00">
        <route edges="E20 -E19 E21 E24 E29 E30 E32 E33"/>
    </vehicle>
    <vehicle id="416" depart="416.00">
        <route edges="E18"/>
    </vehicle>
    <vehicle id="417" depart="417.00">
        <route edges="E25 -E24 -E21 E19 E16"/>
    </vehicle>
    <vehicle id="418" depart="418.00">
        <route edges="E22 E20 -E19 E21 E24 -E25 -E26"/>
    </vehicle>
    <vehicle id="420" depart="420.00">
        <route edges="-E33 -E32 -E30 -E29 E27"/>
    </vehicle>
    <vehicle id="421" depart="421.00">
        <route edges="E22 E20 -E19 E21 E24 E29 E30 E32"/>
    </vehicle>
    <vehicle id="422" depart="422.00">
        <route edges="E30 E32"/>
    </vehicle>
    <vehicle id="423" depart="423.00">
        <route edges="-E34 -E33"/>
    </vehicle>
    <vehicle id="424" depart="424.00">
        <route edges="E25 E29"/>
    </vehicle>
    <vehicle id="431" depart="431.00">
        <route edges="E24 E29 E30 E32 E33 E34"/>
    </vehicle>
    <vehicle id="433" depart="433.00">
        <route edges="-E31 -E30 -E29 -E24 -E21 E19 E15"/>
    </vehicle>
    <vehicle id="436" depart="436.00">
        <route edges="-E28 -E27 -E24"/>
    </vehicle>
    <vehicle id="440" depart="440.00">
        <route edges="-E30"/>
    </vehicle>
    <vehicle id="441" depart="441.00">
        <route edges="-E19 E21 E24 E29 E30 E31"/>
    </vehicle>
    <vehicle id="444" depart="444.00">
        <route edges="-E33 -E32 -E30 -E29 -E24 -E21 E19 E23"/>
    </vehicle>
    <vehicle id="445" depart="445.00">
        <route edges="E22 E20 E16"/>
    </vehicle>
    <vehicle id="447" depart="447.00">
        <route edges="-E28 -E27 -E24 -E21 E19 E15"/>
    </vehicle>
    <vehicle id="453" depart="453.00">
        <route edges="E24 E29"/>
    </vehicle>
    <vehicle id="455" depart="455.00">
        <route edges="E17 E18 -E19 E21 E24 E29 E30 E32 E33 E34"/>
    </vehicle>
    <vehicle id="458" depart="458.00">
        <route edges="E22 E20 -E19 E21 E24"/>
    </vehicle>
    <vehicle id="459" depart="459.00">
        <route edges="E24 E27 E28"/>
    </vehicle>
    <vehicle id="460" depart="460.00">
        <route edges="E22 E20 -E19 E21 E24 E29 E30 E32"/>
    </vehicle>
    <vehicle id="461" depart="461.00">
        <route edges="E21 E24 E29 E30 E32 E33 E34"/>
    </vehicle>
    <vehicle id="463" depart="463.00">
        <route edges="E14 E23"/>
    </vehicle>
    <vehicle id="464" depart="464.00">
        <route edges="E25 -E24"/>
    </vehicle>
    <vehicle id="466" depart="466.00">
        <route edges="-E28 -E27 -E25"/>
    </vehicle>
    <vehicle id="468" depart="468.00">
        <route edges="E18 -E19 E21 E24 E29 E30 E32 E33 E34"/>
    </vehicle>
    <vehicle id="471" depart="471.00">
        <route edges="E29"/>
    </vehicle>
    <vehicle id="472" depart="472.00">
        <route edges="-E33 -E32 -E30 -E29 -E25"/>
    </vehicle>
    <vehicle id="473" depart="473.00">
        <route edges="E36 E37 -E30 -E29 -E25 -E26"/>
    </vehicle>
    <vehicle id="474" depart="474.00">
        <route edges="E36 E37 E32"/>
    </vehicle>
    <vehicle id="476" depart="476.00">
        <route edges="E37 E31"/>
    </vehicle>
    <vehicle id="478" depart="478.00">
        <route edges="-E19 E21"/>
    </vehicle>
    <vehicle id="479" depart="479.00">
        <route edges="E14 -E19 E21 E24 E27"/>
    </vehicle>
    <vehicle id="481" depart="481.00">
        <route edges="E29 E30 E35"/>
    </vehicle>
    <vehicle id="483" depart="483.00">
        <route edges="-E19 E21 E24 E29 E30 E32 E33"/>
    </vehicle>
    <vehicle id="485" depart="485.00">
        <route edges="-E29 -E24 -E21"/>
    </vehicle>
    <vehicle id="486" depart="486.00">
        <route edges="E29 E30 E32 E33 E34"/>
    </vehicle>
    <vehicle id="487" depart="487.00">
        <route edges="-E32 -E30 -E29 -E24 -E21 E19 E16"/>
    </vehicle>
    <vehicle id="488" depart="488.00">
        <route edges="-E27 E29 E30 E35"/>
    </vehicle>
    <vehicle id="489" depart="489.00">
        <route edges="-E32 -E30 -E29 -E24 -E21 E19"/>
    </vehicle>
    <vehicle id="492" depart="492.00">
        <route edges="E24 E29"/>
    </vehicle>
    <vehicle id="493" depart="493.00">
        <route edges="E36 E37 -E30 -E29 -E24 -E21 E19 E16"/>
    </vehicle>
    <vehicle id="499" depart="499.00">
        <route edges="E36 E37 E32"/>
    </vehicle>
    <vehicle id="502" depart="502.00">
        <route edges="-E33 -E32 -E30 -E29 -E24 -E21 E19 E15"/>
    </vehicle>
    <vehicle id="503" depart="503.00">
        <route edges="-E28 -E27 -E25"/>
    </vehicle>
    <vehicle id="506" depart="506.00">
        <route edges="E20 -E19"/>
    </vehicle>
    <vehicle id="510" depart="510.00">
        <route edges="-E29"/>
    </vehicle>
    <vehicle id="512" depart="512.00">
        <route edges="-E27 E29 E30 E32 E33 E34"/>
    </vehicle>
    <vehicle id="513" depart="513.00">
        <route edges="-E19 E21 E24 E29 E30 E32"/>
    </vehicle>
    <vehicle id="514" depart="514.00">
        <route edges="-E27 -E25"/>
    </vehicle>
    <vehicle id="516" depart="516.00">
        <route edges="E22 E20 -E19"/>
    </vehicle>
    <vehicle id="517" depart="517.00">
        <route edges="-E19 E21 E24 E29 E30"/>
    </vehicle>
    <vehicle id="519" depart="519.00">
        <route edges="-E28 -E27 -E24 -E21"/>
    </vehicle>
    <vehicle id="521" depart="521.00">
        <route edges="E26 E25 -E24 -E21 E19"/>
    </vehicle>
    <vehicle id="524" depart="524.00">
        <route edges="E36 E37 -E30 -E29 -E24 -E21"/>
    </vehicle>
    <vehicle id="526" depart="526.00">
        <route edges="E18"/>
    </vehicle>
    <vehicle id="527" depart="527.00">
        <route edges="E36 E37 -E30 -E29 -E24 -E21"/>
    </vehicle>
    <vehicle id="533" depart="533.00">
        <route edges="E21"/>
    </vehicle>
    <vehicle id="535" depart="535.00">
        <route edges="E18"/>
    </vehicle>
    <vehicle id="537" depart="537.00">
        <route edges="E25 E29 E30 E32"/>
    </vehicle>
    <vehicle id="538" depart="538.00">
        <route edges="E22 E20 -E19 E21 E24 E29 E30"/>
    </vehicle>
    <vehicle id="544" depart="544.00">
        <route edges="-E34 -E33 -E32 -E30 -E29 -E25 -E26"/>
    </vehicle>
    <vehicle id="549" depart="549.00">
        <route edges="E20 -E19 E21"/>
    </vehicle>
    <vehicle id="550" depart="550.00">
        <route edges="-E32 -E30 -E29 -E25"/>
    </vehicle>
    <vehicle id="552" depart="552.00">
        <route edges="E26 E25 E29 E30 E32 E33"/>
    </vehicle>
    <vehicle id="559" depart="559.00">
        <route edges="E20 -E19 E21 E24 E29 E30 E31"/>
    </vehicle>
    <vehicle id="562" depart="562.00">
        <route edges="E22 E20 -E19"/>
    </vehicle>
    <vehicle id="568" depart="568.00">
        <route edges="E13 E14 -E19 E21 E24 -E25 -E26"/>
    </vehicle>
    <vehicle id="571" depart="571.00">
        <route edges="E13 E14"/>
    </vehicle>
    <vehicle id="572" depart="572.00">
        <route edges="-E34 -E33 -E32 -E30 -E29 E27 E28"/>
    </vehicle>
    <vehicle id="574" depart="574.00">
        <route edges="-E24 -E21"/>
    </vehicle>
    <vehicle id="583" depart="583.00">
        <route edges="-E34 -E33 -E32 -E30 -E29 -E24 -E21 E19 E23"/>
    </vehicle>
    <vehicle id="585" depart="585.00">
        <route edges="-E29 -E25 -E26"/>
    </vehicle>
    <vehicle id="587" depart="587.00">
        <route edges="-E19 E21 E24 E29"/>
    </vehicle>
    <vehicle id="588" depart="588.00">
        <route edges="-E28 -E27 -E24 -E21 E19 E15"/>
    </vehicle>
    <vehicle id="590" depart="590.00">
        <route edges="E30 E31"/>
    </vehicle>
    <vehicle id="595" depart="595.00">
        <route edges="E25 -E24 -E21 E19 E16"/>
    </vehicle>
    <vehicle id="597" depart="597.00">
        <route edges="-E32 E31"/>
    </vehicle>
    <vehicle id="598" depart="598.00">
        <route edges="E21 E24 E29 E30 E31"/>
    </vehicle>
    <vehicle id="601" depart="601.00">
        <route edges="E20"/>
    </vehicle>
    <vehicle id="602" depart="602.00">
        <route edges="-E34 -E33"/>
    </vehicle>
    <vehicle id="603" depart="603.00">
        <route edges="-E33"/>
    </vehicle>
    <vehicle id="607" depart="607.00">
        <route edges="E25 E29 E30 E31"/>
    </vehicle>
    <vehicle id="609" depart="609.00">
        <route edges="-E27"/>
    </vehicle>
    <vehicle id="610" depart="610.00">
        <route edges="E21 E24 E29"/>
    </vehicle>
    <vehicle id="613" depart="613.00">
        <route edges="E26 E25 E29"/>
    </vehicle>
    <vehicle id="614" depart="614.00">
        <route edges="E14 -E19 E21 E24 E29 E30 E32 E33 E34"/>
    </vehicle>
    <vehicle id="616" depart="616.00">
        <route edges="E21 E24 E29 E30 E32"/>
    </vehicle>
    <vehicle id="617" depart="617.00">
        <route edges="E21 E24 -E25 -E26"/>
    </vehicle>
    <vehicle id="619" depart="619.00">
        <route edges="-E32"/>
    </vehicle>
    <vehicle id="625" depart="625.00">
        <route edges="E18"/>
    </vehicle>
    <vehicle id="629" depart="629.00">
        <route edges="-E32 -E30 -E29 -E24 -E21 E19"/>
    </vehicle>
    <vehicle id="630" depart="630.00">
        <route edges="-E27 -E24 -E21"/>
    </vehicle>
    <vehicle id="632" depart="632.00">
        <route edges="-E33 -E32 -E30 -E29 E27 E28"/>
    </vehicle>
    <vehicle id="636" depart="636.00">
        <route edges="-E27 -E24 -E21 E19 E15"/>
    </vehicle>
    <vehicle id="637" depart="637.00">
        <route edges="-E31 -E30 -E29 -E24 -E21 E19 E16"/>
    </vehicle>
    <vehicle id="638" depart="638.00">
        <route edges="-E33 -E32 -E30 -E29 -E24 -E21 E19 E23"/>
    </vehicle>
    <vehicle id="642" depart="642.00">
        <route edges="E25"/>
    </vehicle>
    <vehicle id="643" depart="643.00">
        <route edges="E33"/>
    </vehicle>
    <vehicle id="644" depart="644.00">
        <route edges="-E33 -E32 -E30 -E29 -E24 -E21 E19 E23"/>
    </vehicle>
    <vehicle id="646" depart="646.00">
        <route edges="E37 -E30 -E29 E27"/>
    </vehicle>
    <vehicle id="647" depart="647.00">
        <route edges="-E34 -E33 -E32 -E30 -E29 -E24 -E21 E19 E23"/>
    </vehicle>
    <vehicle id="651" depart="651.00">
        <route edges="E29"/>
    </vehicle>
    <vehicle id="653" depart="653.00">
        <route edges="E22 E20 E16"/>
    </vehicle>
    <vehicle id="656" depart="656.00">
        <route edges="E36 E37 -E30 -E29 -E24 -E21 E19"/>
    </vehicle>
    <vehicle id="657" depart="657.00">
        <route edges="-E29 -E25 -E26"/>
    </vehicle>
    <vehicle id="660" depart="660.00">
        <route edges="E30 E32 E33"/>
    </vehicle>
    <vehicle id="663" depart="663.00">
        <route edges="-E34 -E33 -E32 -E30 -E29 -E25 -E26"/>
    </vehicle>
    <vehicle id="664" depart="664.00">
        <route edges="E29 E30"/>
    </vehicle>
    <vehicle id="666" depart="666.00">
        <route edges="E14 E16"/>
    </vehicle>
    <vehicle id="673" depart="673.00">
        <route edges="E36 E37"/>
    </vehicle>
    <vehicle id="676" depart="676.00">
        <route edges="E36 E37 E31"/>
    </vehicle>
    <vehicle id="684" depart="684.00">
        <route edges="E14 -E19 E21 E24 E29 E30 E35"/>
    </vehicle>
    <vehicle id="691" depart="691.00">
        <route edges="E22 E20 -E19 E21 E24 E29 E30"/>
    </vehicle>
    <vehicle id="695" depart="695.00">
        <route edges="E14 -E19"/>
    </vehicle>
    <vehicle id="700" depart="700.00">
        <route edges="-E32 -E30 -E29 -E24 -E21"/>
    </vehicle>
    <vehicle id="701" depart="701.00">
        <route edges="E13 E14 -E19 E21 E24 E29 E30"/>
    </vehicle>
    <vehicle id="702" depart="702.00">
        <route edges="E14 -E19 E21 E24 -E25"/>
    </vehicle>
    <vehicle id="705" depart="705.00">
        <route edges="-E30 -E29 -E25 -E26"/>
    </vehicle>
    <vehicle id="706" depart="706.00">
        <route edges="E13 E14 -E19 E21 E24"/>
    </vehicle>
    <vehicle id="707" depart="707.00">
        <route edges="-E30 -E29 -E24 -E21 E19 E16"/>
    </vehicle>
    <vehicle id="709" depart="709.00">
        <route edges="E37 -E30 -E29 -E24"/>
    </vehicle>
    <vehicle id="712" depart="712.00">
        <route edges="-E34 -E33 -E32 -E30 -E29 -E24 -E21 E19"/>
    </vehicle>
    <vehicle id="718" depart="718.00">
        <route edges="-E32 -E30 -E29 -E24 -E21"/>
    </vehicle>
    <vehicle id="720" depart="720.00">
        <route edges="-E28 -E27 E29 E30"/>
    </vehicle>