<?xml version="1.0" encoding="UTF-8"?>

<!-- generated on 2024-06-03 12:33:35 by Eclipse SUMO netedit Version 1.19.0
-->

<routes xmlns:xsi="http://www.w3.org/2001/XMLSchema-instance" xsi:noNamespaceSchemaLocation="http://sumo.dlr.de/xsd/routes_file.xsd">
    <!-- Vehicles, persons and containers (sorted by depart) -->
    <flow id="f_0" begin="0.00" end="1000.00" probability="0.7">
        <route edges="E13 E14 -E19 E21 E24 E29 E30 E32 E33 E34"/>
    </flow>
    <flow id="f_1" begin="0.00" end="1000.00" probability="0.1">
        <route edges="-E34 -E33 -E32 -E30 -E29 -E24 -E21 E19 E15"/>
    </flow>
</routes>
