<?xml version="1.0" encoding="UTF-8"?>

<!-- generated on 2024-06-03 18:07:31 by Eclipse SUMO netedit Version 1.19.0
<configuration xmlns:xsi="http://www.w3.org/2001/XMLSchema-instance" xsi:noNamespaceSchemaLocation="http://sumo.dlr.de/xsd/neteditConfiguration.xsd">

    <input>
        <additional-files value="C:\Users\sioldead\OneDrive - McMaster University\Research\Python\NN\Data\Test6\StoneChurch.add.xml"/>
        <sumo-net-file value="C:\Users\sioldead\OneDrive - McMaster University\Research\Python\NN\Data\Test6\StoneChurch.net.xml"/>
    </input>

    <output>
        <output-file value="C:\Users\sioldead\OneDrive - McMaster University\Research\Python\NN\Data\Test6\StoneChurch.net.xml"/>
    </output>

    <processing>
        <geometry.min-radius.fix.railways value="false"/>
        <geometry.max-grade.fix value="false"/>
        <offset.disable-normalization value="true"/>
        <lefthand value="0"/>
    </processing>

    <junctions>
        <no-turnarounds value="true"/>
        <junctions.corner-detail value="5"/>
        <junctions.limit-turn-speed value="5.50"/>
        <rectangular-lane-cut value="0"/>
    </junctions>

    <pedestrian>
        <walkingareas value="0"/>
    </pedestrian>

</configuration>
-->

<net version="1.16" junctionCornerDetail="5" limitTurnSpeed="5.50" xmlns:xsi="http://www.w3.org/2001/XMLSchema-instance" xsi:noNamespaceSchemaLocation="http://sumo.dlr.de/xsd/net_file.xsd">

    <location netOffset="0.00,0.00" convBoundary="1100.00,-300.00,4300.00,1100.00" origBoundary="-10000000000.00,-10000000000.00,10000000000.00,10000000000.00" projParameter="!"/>

    <edge id=":J16_0" function="internal">
        <lane id=":J16_0_0" index="0" speed="13.89" length="8.40" shape="1596.00,598.40 1598.46,597.90 1600.00,596.80 1601.54,595.70 1604.00,595.20"/>
        <lane id=":J16_0_1" index="1" speed="13.89" length="8.40" shape="1596.00,598.40 1604.00,598.40"/>
    </edge>
    <edge id=":J17_0" function="internal">
        <lane id=":J17_0_0" index="0" speed="7.33" length="11.73" shape="1695.20,610.40 1694.85,606.55 1693.80,603.80 1692.05,602.15 1689.60,601.60"/>
    </edge>
    <edge id=":J17_1" function="internal">
        <lane id=":J17_1_0" index="0" speed="13.89" length="21.09" shape="1695.20,610.40 1695.70,603.63 1696.80,598.12 1697.90,593.55 1698.40,589.60"/>
    </edge>
    <edge id=":J17_2" function="internal">
        <lane id=":J17_2_0" index="0" speed="9.26" length="7.32" shape="1698.40,610.40 1699.15,605.15 1700.19,603.42"/>
    </edge>
    <edge id=":J17_12" function="internal">
        <lane id=":J17_12_0" index="0" speed="9.26" length="12.03" shape="1700.19,603.42 1701.40,601.40 1705.15,599.15 1710.40,598.40"/>
    </edge>
    <edge id=":J17_3" function="internal">
        <lane id=":J17_3_0" index="0" speed="7.33" length="11.73" shape="1710.40,604.80 1706.55,605.15 1703.80,606.20 1702.15,607.95 1701.60,610.40"/>
    </edge>
    <edge id=":J17_4" function="internal">
        <lane id=":J17_4_0" index="0" speed="13.89" length="21.09" shape="1710.40,604.80 1703.63,604.30 1698.12,603.20 1693.55,602.10 1689.60,601.60"/>
    </edge>
    <edge id=":J17_5" function="internal">
        <lane id=":J17_5_0" index="0" speed="9.26" length="7.32" shape="1710.40,601.60 1705.15,600.85 1703.42,599.81"/>
    </edge>
    <edge id=":J17_13" function="internal">
        <lane id=":J17_13_0" index="0" speed="9.26" length="12.03" shape="1703.42,599.81 1701.40,598.60 1699.15,594.85 1698.40,589.60"/>
    </edge>
    <edge id=":J17_6" function="internal">
        <lane id=":J17_6_0" index="0" speed="7.33" length="11.73" shape="1704.80,589.60 1705.15,593.45 1706.20,596.20 1707.95,597.85 1710.40,598.40"/>
    </edge>
    <edge id=":J17_7" function="internal">
        <lane id=":J17_7_0" index="0" speed="13.89" length="21.09" shape="1704.80,589.60 1704.30,596.37 1703.20,601.88 1702.10,606.45 1701.60,610.40"/>
    </edge>
    <edge id=":J17_8" function="internal">
        <lane id=":J17_8_0" index="0" speed="9.26" length="7.32" shape="1701.60,589.60 1700.85,594.85 1699.81,596.58"/>
    </edge>
    <edge id=":J17_14" function="internal">
        <lane id=":J17_14_0" index="0" speed="9.26" length="12.03" shape="1699.81,596.58 1698.60,598.60 1694.85,600.85 1689.60,601.60"/>
    </edge>
    <edge id=":J17_9" function="internal">
        <lane id=":J17_9_0" index="0" speed="7.33" length="11.73" shape="1689.60,595.20 1693.45,594.85 1696.20,593.80 1697.85,592.05 1698.40,589.60"/>
    </edge>
    <edge id=":J17_10" function="internal">
        <lane id=":J17_10_0" index="0" speed="13.89" length="21.09" shape="1689.60,595.20 1696.37,595.70 1701.88,596.80 1706.45,597.90 1710.40,598.40"/>
    </edge>
    <edge id=":J17_11" function="internal">
        <lane id=":J17_11_0" index="0" speed="9.26" length="7.32" shape="1689.60,598.40 1694.85,599.15 1696.58,600.19"/>
    </edge>
    <edge id=":J17_15" function="internal">
        <lane id=":J17_15_0" index="0" speed="9.26" length="12.03" shape="1696.58,600.19 1698.60,601.40 1700.85,605.15 1701.60,610.40"/>
    </edge>
    <edge id=":J19_0" function="internal">
        <lane id=":J19_0_0" index="0" speed="13.89" length="8.40" shape="1701.60,396.00 1702.10,398.46 1703.20,400.00 1704.30,401.54 1704.80,404.00"/>
        <lane id=":J19_0_1" index="1" speed="13.89" length="8.40" shape="1701.60,396.00 1701.60,404.00"/>
    </edge>
    <edge id=":J20_0" function="internal">
        <lane id=":J20_0_0" index="0" speed="13.89" length="10.81" shape="1804.97,599.30 1802.35,601.11 1800.52,602.89 1798.49,604.26 1795.24,604.80"/>
        <lane id=":J20_0_1" index="1" speed="13.89" length="10.81" shape="1804.97,599.30 1802.27,600.61 1800.30,601.29 1798.24,601.56 1795.24,601.60"/>
    </edge>
    <edge id=":J20_2" function="internal">
        <lane id=":J20_2_0" index="0" speed="13.89" length="8.66" shape="1795.24,598.40 1797.80,598.36 1799.56,598.14 1801.23,597.55 1803.54,596.44"/>
    </edge>
    <edge id=":J21_0" function="internal">
        <lane id=":J21_0_0" index="0" speed="13.89" length="8.40" shape="1698.40,704.00 1697.90,701.54 1696.80,700.00 1695.70,698.46 1695.20,696.00"/>
        <lane id=":J21_0_1" index="1" speed="13.89" length="8.40" shape="1698.40,704.00 1698.40,696.00"/>
    </edge>
    <edge id=":J22_0" function="internal">
        <lane id=":J22_0_0" index="0" speed="13.89" length="8.66" shape="2204.76,401.60 2202.20,401.64 2200.44,401.86 2198.77,402.45 2196.46,403.56"/>
    </edge>
    <edge id=":J22_1" function="internal">
        <lane id=":J22_1_0" index="0" speed="13.89" length="11.76" shape="2195.03,400.70 2197.52,398.39 2199.12,395.51 2201.11,393.04 2204.76,392.00"/>
        <lane id=":J22_1_1" index="1" speed="13.89" length="11.76" shape="2195.03,400.70 2197.65,398.89 2199.48,397.11 2201.51,395.74 2204.76,395.20"/>
        <lane id=":J22_1_2" index="2" speed="13.89" length="11.76" shape="2195.03,400.70 2197.73,399.39 2199.70,398.71 2201.76,398.44 2204.76,398.40"/>
    </edge>
    <edge id=":J24_0" function="internal">
        <lane id=":J24_0_0" index="0" speed="12.51" length="23.38" shape="2400.86,419.62 2396.61,411.73 2392.86,406.10 2389.61,402.73 2386.87,401.60"/>
    </edge>
    <edge id=":J24_1" function="internal">
        <lane id=":J24_1_0" index="0" speed="13.89" length="33.36" shape="2400.86,419.62 2397.15,410.17 2395.52,401.73 2395.14,393.92 2395.20,386.40"/>
        <lane id=":J24_1_1" index="1" speed="13.89" length="33.36" shape="2403.73,418.19 2400.06,408.97 2398.55,401.01 2398.29,393.70 2398.40,386.40"/>
    </edge>
    <edge id=":J24_3" function="internal">
        <lane id=":J24_3_0" index="0" speed="9.24" length="4.58" shape="2406.59,416.76 2405.19,412.39"/>
    </edge>
    <edge id=":J24_15" function="internal">
        <lane id=":J24_15_0" index="0" speed="9.24" length="21.52" shape="2405.19,412.39 2404.28,409.57 2405.06,403.74 2408.94,399.83 2415.96,398.40"/>
    </edge>
    <edge id=":J24_4" function="internal">
        <lane id=":J24_4_0" index="0" speed="5.74" length="9.18" shape="2415.96,408.00 2413.26,408.37 2411.75,409.47 2411.44,411.31 2412.31,413.89"/>
    </edge>
    <edge id=":J24_5" function="internal">
        <lane id=":J24_5_0" index="0" speed="13.89" length="29.30" shape="2415.96,404.80 2405.94,404.30 2397.80,403.20 2391.46,402.10 2386.87,401.60"/>
    </edge>
    <edge id=":J24_6" function="internal">
        <lane id=":J24_6_0" index="0" speed="10.75" length="5.76" shape="2415.96,401.60 2410.24,400.89"/>
    </edge>
    <edge id=":J24_16" function="internal">
        <lane id=":J24_16_0" index="0" speed="10.75" length="20.68" shape="2410.24,400.89 2408.27,400.65 2402.79,397.80 2399.50,393.05 2398.40,386.40"/>
    </edge>
    <edge id=":J24_7" function="internal">
        <lane id=":J24_7_0" index="0" speed="7.82" length="13.52" shape="2408.00,386.40 2408.50,390.25 2409.99,393.00 2412.47,394.65 2415.96,395.20"/>
    </edge>
    <edge id=":J24_8" function="internal">
        <lane id=":J24_8_0" index="0" speed="13.89" length="29.63" shape="2404.80,386.40 2405.35,395.45 2406.88,402.14 2409.25,407.83 2412.31,413.89"/>
        <lane id=":J24_8_1" index="1" speed="13.89" length="29.63" shape="2401.60,386.40 2402.20,395.98 2403.85,403.13 2406.34,409.14 2409.45,415.32"/>
    </edge>
    <edge id=":J24_10" function="internal">
        <lane id=":J24_10_0" index="0" speed="10.29" length="5.79" shape="2401.60,386.40 2400.81,392.13"/>
    </edge>
    <edge id=":J24_17" function="internal">
        <lane id=":J24_17_0" index="0" speed="10.29" length="18.35" shape="2400.81,392.13 2400.68,393.05 2397.92,397.80 2393.31,400.65 2386.87,401.60"/>
    </edge>
    <edge id=":J24_11" function="internal">
        <lane id=":J24_11_0" index="0" speed="7.21" length="11.32" shape="2386.87,392.00 2390.51,391.65 2393.12,390.60 2394.68,388.85 2395.20,386.40"/>
    </edge>
    <edge id=":J24_12" function="internal">
        <lane id=":J24_12_0" index="0" speed="13.89" length="29.09" shape="2386.87,395.20 2415.96,395.20"/>
        <lane id=":J24_12_1" index="1" speed="13.89" length="29.09" shape="2386.87,398.40 2415.96,398.40"/>
    </edge>
    <edge id=":J24_14" function="internal">
        <lane id=":J24_14_0" index="0" speed="13.89" length="8.13" shape="2386.87,398.40 2393.57,399.46 2394.76,400.09"/>
    </edge>
    <edge id=":J24_18" function="internal">
        <lane id=":J24_18_0" index="0" speed="13.89" length="21.63" shape="2394.76,400.09 2399.57,402.63 2404.87,407.92 2409.45,415.32"/>
    </edge>
    <edge id=":J25_0" function="internal">
        <lane id=":J25_0_0" index="0" speed="13.89" length="7.22" shape="2496.59,604.94 2495.51,603.29 2494.11,602.63 2492.61,602.00 2491.28,600.45"/>
        <lane id=":J25_0_1" index="1" speed="13.89" length="7.22" shape="2499.62,603.93 2498.51,602.15 2497.06,601.40 2495.53,600.68 2494.14,599.02"/>
        <lane id=":J25_0_2" index="2" speed="13.89" length="7.22" shape="2499.62,603.93 2498.97,602.00 2498.48,600.69 2497.91,599.42 2497.00,597.59"/>
    </edge>
    <edge id=":J25_3" function="internal">
        <lane id=":J25_3_0" index="0" speed="13.89" length="7.56" shape="2502.73,594.73 2503.75,596.80 2504.40,598.24 2504.96,599.72 2505.70,601.91"/>
        <lane id=":J25_3_1" index="1" speed="13.89" length="7.56" shape="2499.87,596.16 2500.83,598.11 2501.44,599.46 2501.97,600.86 2502.66,602.92"/>
    </edge>
    <edge id=":J27_0" function="internal">
        <lane id=":J27_0_0" index="0" speed="13.89" length="8.54" shape="2395.20,104.00 2394.70,101.54 2393.60,100.00 2392.50,98.46 2392.00,96.00"/>
        <lane id=":J27_0_1" index="1" speed="13.89" length="8.54" shape="2398.40,104.00 2397.90,101.54 2396.80,100.00 2395.70,98.46 2395.20,96.00"/>
        <lane id=":J27_0_2" index="2" speed="13.89" length="8.54" shape="2398.40,104.00 2398.40,96.00"/>
    </edge>
    <edge id=":J27_3" function="internal">
        <lane id=":J27_3_0" index="0" speed="13.89" length="8.54" shape="2404.80,96.00 2405.30,98.46 2406.40,100.00 2407.50,101.54 2408.00,104.00"/>
        <lane id=":J27_3_1" index="1" speed="13.89" length="8.54" shape="2401.60,96.00 2402.10,98.46 2403.20,100.00 2404.30,101.54 2404.80,104.00"/>
        <lane id=":J27_3_2" index="2" speed="13.89" length="8.54" shape="2401.60,96.00 2401.60,104.00"/>
    </edge>
    <edge id=":J29_0" function="internal">
        <lane id=":J29_0_0" index="0" speed="13.89" length="9.06" shape="2919.60,408.82 2917.19,408.35 2915.51,408.10 2913.83,408.01 2911.37,408.00"/>
        <lane id=":J29_0_1" index="1" speed="13.89" length="9.06" shape="2920.23,405.68 2917.63,405.17 2915.83,404.91 2914.02,404.81 2911.37,404.80"/>
        <lane id=":J29_0_2" index="2" speed="13.89" length="9.06" shape="2920.23,405.68 2917.51,404.64 2915.83,403.28 2914.14,402.10 2911.37,401.60"/>
    </edge>
    <edge id=":J29_3" function="internal">
        <lane id=":J29_3_0" index="0" speed="13.89" length="10.52" shape="2911.37,395.20 2914.58,395.22 2916.78,395.33 2918.96,395.65 2922.11,396.26"/>
        <lane id=":J29_3_1" index="1" speed="13.89" length="10.52" shape="2911.37,398.40 2914.39,398.42 2916.46,398.53 2918.52,398.82 2921.49,399.40"/>
        <lane id=":J29_3_2" index="2" speed="13.89" length="10.52" shape="2911.37,398.40 2914.32,398.90 2916.15,400.09 2917.96,401.46 2920.86,402.54"/>
    </edge>
    <edge id=":J30_0" function="internal">
        <lane id=":J30_0_0" index="0" speed="8.71" length="14.46" shape="3392.00,514.70 3391.67,509.64 3390.70,505.88 3389.07,503.42 3386.79,502.25"/>
    </edge>
    <edge id=":J30_1" function="internal">
        <lane id=":J30_1_0" index="0" speed="13.89" length="29.33" shape="3395.20,514.70 3395.70,504.67 3396.80,496.51 3397.90,490.17 3398.40,485.57"/>
    </edge>
    <edge id=":J30_2" function="internal">
        <lane id=":J30_2_0" index="0" speed="8.98" length="9.66" shape="3398.40,514.70 3399.11,507.55 3400.14,505.29"/>
    </edge>
    <edge id=":J30_14" function="internal">
        <lane id=":J30_14_0" index="0" speed="8.98" length="11.88" shape="3400.14,505.29 3401.25,502.85 3404.81,500.60 3409.80,500.80"/>
    </edge>
    <edge id=":J30_3" function="internal">
        <lane id=":J30_3_0" index="0" speed="6.04" length="9.07" shape="3407.47,510.11 3404.90,509.85 3403.07,510.53 3401.97,512.14 3401.60,514.70"/>
    </edge>
    <edge id=":J30_4" function="internal">
        <lane id=":J30_4_0" index="0" speed="13.89" length="22.26" shape="3407.47,510.11 3401.09,508.03 3396.78,505.91 3392.65,503.93 3386.79,502.25"/>
        <lane id=":J30_4_1" index="1" speed="13.89" length="22.26" shape="3408.24,507.01 3401.81,504.91 3397.46,502.78 3393.29,500.80 3387.42,499.12"/>
    </edge>
    <edge id=":J30_6" function="internal">
        <lane id=":J30_6_0" index="0" speed="11.09" length="5.25" shape="3409.02,503.90 3404.37,501.76 3404.29,501.66"/>
    </edge>
    <edge id=":J30_15" function="internal">
        <lane id=":J30_15_0" index="0" speed="11.09" length="17.70" shape="3404.29,501.66 3401.06,497.99 3399.06,492.60 3398.40,485.57"/>
    </edge>
    <edge id=":J30_7" function="internal">
        <lane id=":J30_7_0" index="0" speed="8.89" length="14.43" shape="3404.80,485.57 3405.16,490.33 3406.24,493.94 3408.05,496.40 3410.57,497.70"/>
    </edge>
    <edge id=":J30_8" function="internal">
        <lane id=":J30_8_0" index="0" speed="13.89" length="29.32" shape="3404.80,485.57 3404.30,493.64 3403.20,502.01 3402.10,509.44 3401.60,514.70"/>
    </edge>
    <edge id=":J30_9" function="internal">
        <lane id=":J30_9_0" index="0" speed="9.50" length="8.81" shape="3401.60,485.57 3400.71,492.56 3399.83,494.08"/>
    </edge>
    <edge id=":J30_16" function="internal">
        <lane id=":J30_16_0" index="0" speed="9.50" length="14.69" shape="3399.83,494.08 3398.05,497.15 3393.62,499.33 3387.42,499.12"/>
    </edge>
    <edge id=":J30_10" function="internal">
        <lane id=":J30_10_0" index="0" speed="6.87" length="11.74" shape="3389.30,489.70 3393.28,490.13 3396.13,489.58 3397.83,488.06 3398.40,485.57"/>
    </edge>
    <edge id=":J30_11" function="internal">
        <lane id=":J30_11_0" index="0" speed="13.89" length="22.72" shape="3389.30,489.70 3395.96,491.55 3400.48,493.62 3404.72,495.74 3410.57,497.70"/>
        <lane id=":J30_11_1" index="1" speed="13.89" length="22.72" shape="3388.67,492.84 3395.28,494.68 3399.75,496.74 3403.96,498.84 3409.80,500.80"/>
    </edge>
    <edge id=":J30_13" function="internal">
        <lane id=":J30_13_0" index="0" speed="11.39" length="6.70" shape="3388.05,495.98 3393.98,498.16 3394.25,498.42"/>
    </edge>
    <edge id=":J30_17" function="internal">
        <lane id=":J30_17_0" index="0" speed="11.39" length="18.64" shape="3394.25,498.42 3398.21,502.01 3400.75,507.52 3401.60,514.70"/>
    </edge>
    <edge id=":J33_0" function="internal">
        <lane id=":J33_0_0" index="0" speed="13.89" length="9.78" shape="3829.56,616.57 3827.35,615.48 3825.79,614.81 3824.17,614.30 3821.78,613.69"/>
        <lane id=":J33_0_1" index="1" speed="13.89" length="9.78" shape="3829.56,616.57 3827.36,614.92 3826.19,613.22 3824.96,611.70 3822.55,610.59"/>
        <lane id=":J33_0_2" index="2" speed="13.89" length="9.78" shape="3829.56,616.57 3827.46,614.40 3826.78,611.69 3825.93,609.15 3823.33,607.48"/>
    </edge>
    <edge id=":J33_3" function="internal">
        <lane id=":J33_3_0" index="0" speed="13.89" length="14.73" shape="3824.88,601.27 3828.04,603.61 3828.78,607.28 3829.10,611.06 3831.00,613.71"/>
    </edge>
    <edge id=":J34_0" function="internal">
        <lane id=":J34_0_0" index="0" speed="13.89" length="7.33" shape="4002.81,702.62 4000.75,701.93 3999.36,701.40 3998.00,700.78 3996.06,699.82"/>
    </edge>
    <edge id=":J34_1" function="internal">
        <lane id=":J34_1_0" index="0" speed="13.89" length="7.23" shape="3997.49,696.95 3999.53,697.42 4001.09,696.93 4002.68,696.36 4004.84,696.55"/>
        <lane id=":J34_1_1" index="1" speed="13.89" length="7.23" shape="3997.49,696.95 3999.31,697.86 4000.59,698.44 4001.89,698.93 4003.82,699.59"/>
    </edge>
    <edge id=":J37_0" function="internal">
        <lane id=":J37_0_0" index="0" speed="13.89" length="9.22" shape="3398.40,704.00 3397.40,701.36 3395.20,700.05 3393.00,698.71 3392.00,696.00"/>
        <lane id=":J37_0_1" index="1" speed="13.89" length="9.22" shape="3398.40,704.00 3397.90,701.54 3396.80,700.00 3395.70,698.46 3395.20,696.00"/>
        <lane id=":J37_0_2" index="2" speed="13.89" length="9.22" shape="3398.40,704.00 3398.40,696.00"/>
    </edge>

    <edge id="-E19" from="J17" to="J20" priority="-1">
        <lane id="-E19_0" index="0" speed="13.89" length="84.84" shape="1710.40,598.40 1795.24,598.40"/>
    </edge>
    <edge id="-E21" from="J22" to="J20" priority="-1">
        <lane id="-E21_0" index="0" speed="13.89" length="437.70" shape="2196.46,403.56 1804.97,599.30"/>
    </edge>
    <edge id="-E24" from="J24" to="J22" priority="-1">
        <lane id="-E24_0" index="0" speed="13.89" length="182.11" shape="2386.87,401.60 2204.76,401.60"/>
    </edge>
    <edge id="-E25" from="J24" to="J25" priority="-1">
        <lane id="-E25_0" index="0" speed="13.89" length="202.18" shape="2412.31,413.89 2502.73,594.73"/>
        <lane id="-E25_1" index="1" speed="13.89" length="202.18" shape="2409.45,415.32 2499.87,596.16"/>
    </edge>
    <edge id="-E26" from="J25" to="J26" priority="-1">
        <lane id="-E26_0" index="0" speed="13.89" length="312.62" shape="2505.70,601.91 2604.55,898.48"/>
        <lane id="-E26_1" index="1" speed="13.89" length="312.62" shape="2502.66,602.92 2601.52,899.49"/>
    </edge>
    <edge id="-E27" from="J27" to="J24" priority="-1">
        <lane id="-E27_0" index="0" speed="13.89" length="282.40" shape="2408.00,104.00 2408.00,386.40"/>
        <lane id="-E27_1" index="1" speed="13.89" length="282.40" shape="2404.80,104.00 2404.80,386.40"/>
        <lane id="-E27_2" index="2" speed="13.89" length="282.40" shape="2401.60,104.00 2401.60,386.40"/>
    </edge>
    <edge id="-E28" from="J28" to="J27" priority="-1">
        <lane id="-E28_0" index="0" speed="13.89" length="396.00" shape="2404.80,-300.00 2404.80,96.00"/>
        <lane id="-E28_1" index="1" speed="13.89" length="396.00" shape="2401.60,-300.00 2401.60,96.00"/>
    </edge>
    <edge id="-E29" from="J29" to="J24" priority="-1">
        <lane id="-E29_0" index="0" speed="13.89" length="495.41" shape="2911.37,408.00 2415.96,408.00"/>
        <lane id="-E29_1" index="1" speed="13.89" length="495.41" shape="2911.37,404.80 2415.96,404.80"/>
        <lane id="-E29_2" index="2" speed="13.89" length="495.41" shape="2911.37,401.60 2415.96,401.60"/>
    </edge>
    <edge id="-E30" from="J30" to="J29" priority="-1">
        <lane id="-E30_0" index="0" speed="13.89" length="476.44" shape="3386.79,502.25 2919.60,408.82"/>
        <lane id="-E30_1" index="1" speed="13.89" length="476.44" shape="3387.42,499.12 2920.23,405.68"/>
    </edge>
    <edge id="-E31" from="J31" to="J30" priority="-1">
        <lane id="-E31_0" index="0" speed="13.89" length="385.57" shape="3404.80,100.00 3404.80,485.57"/>
        <lane id="-E31_1" index="1" speed="13.89" length="385.57" shape="3401.60,100.00 3401.60,485.57"/>
    </edge>
    <edge id="-E32" from="J33" to="J30" priority="-1">
        <lane id="-E32_0" index="0" speed="13.89" length="427.06" shape="3821.78,613.69 3407.47,510.11"/>
        <lane id="-E32_1" index="1" speed="13.89" length="427.06" shape="3822.55,610.59 3408.24,507.01"/>
        <lane id="-E32_2" index="2" speed="13.89" length="427.06" shape="3823.33,607.48 3409.02,503.90"/>
    </edge>
    <edge id="-E33" from="J34" to="J33" priority="-1">
        <lane id="-E33_0" index="0" speed="13.89" length="186.14" shape="3996.06,699.82 3829.56,616.57"/>
    </edge>
    <edge id="-E34" from="J35" to="J34" priority="-1">
        <lane id="-E34_0" index="0" speed="13.89" length="312.73" shape="4299.49,801.52 4002.81,702.62"/>
    </edge>
    <edge id="E13" from="J15" to="J16" priority="-1">
        <lane id="E13_0" index="0" speed="13.89" length="496.00" shape="1100.00,598.40 1596.00,598.40"/>
    </edge>
    <edge id="E14" from="J16" to="J17" priority="-1">
        <lane id="E14_0" index="0" speed="13.89" length="85.60" shape="1604.00,595.20 1689.60,595.20"/>
        <lane id="E14_1" index="1" speed="13.89" length="85.60" shape="1604.00,598.40 1689.60,598.40"/>
    </edge>
    <edge id="E15" from="J17" to="J15" priority="-1">
        <lane id="E15_0" index="0" speed="13.89" length="589.60" shape="1689.60,601.60 1100.00,601.60"/>
    </edge>
    <edge id="E16" from="J17" to="J18" priority="-1">
        <lane id="E16_0" index="0" speed="13.89" length="889.60" shape="1698.40,589.60 1698.40,-300.00"/>
    </edge>
    <edge id="E17" from="J18" to="J19" priority="-1">
        <lane id="E17_0" index="0" speed="13.89" length="696.00" shape="1701.60,-300.00 1701.60,396.00"/>
    </edge>
    <edge id="E18" from="J19" to="J17" priority="-1">
        <lane id="E18_0" index="0" speed="13.89" length="185.60" shape="1704.80,404.00 1704.80,589.60"/>
        <lane id="E18_1" index="1" speed="13.89" length="185.60" shape="1701.60,404.00 1701.60,589.60"/>
    </edge>
    <edge id="E19" from="J20" to="J17" priority="-1">
        <lane id="E19_0" index="0" speed="13.89" length="84.84" shape="1795.24,604.80 1710.40,604.80"/>
        <lane id="E19_1" index="1" speed="13.89" length="84.84" shape="1795.24,601.60 1710.40,601.60"/>
    </edge>
    <edge id="E20" from="J21" to="J17" priority="-1">
        <lane id="E20_0" index="0" speed="13.89" length="85.60" shape="1695.20,696.00 1695.20,610.40"/>
        <lane id="E20_1" index="1" speed="13.89" length="85.60" shape="1698.40,696.00 1698.40,610.40"/>
    </edge>
    <edge id="E21" from="J20" to="J22" priority="-1">
        <lane id="E21_0" index="0" speed="13.89" length="437.70" shape="1803.54,596.44 2195.03,400.70"/>
    </edge>
    <edge id="E22" from="J23" to="J21" priority="-1">
        <lane id="E22_0" index="0" speed="13.89" length="396.00" shape="1698.40,1100.00 1698.40,704.00"/>
    </edge>
    <edge id="E23" from="J17" to="J23" priority="-1">
        <lane id="E23_0" index="0" speed="13.89" length="489.60" shape="1701.60,610.40 1701.60,1100.00"/>
    </edge>
    <edge id="E24" from="J22" to="J24" priority="-1">
        <lane id="E24_0" index="0" speed="13.89" length="182.11" shape="2204.76,392.00 2386.87,392.00"/>
        <lane id="E24_1" index="1" speed="13.89" length="182.11" shape="2204.76,395.20 2386.87,395.20"/>
        <lane id="E24_2" index="2" speed="13.89" length="182.11" shape="2204.76,398.40 2386.87,398.40"/>
    </edge>
    <edge id="E25" from="J25" to="J24" priority="-1">
        <lane id="E25_0" index="0" speed="13.89" length="202.18" shape="2491.28,600.45 2400.86,419.62"/>
        <lane id="E25_1" index="1" speed="13.89" length="202.18" shape="2494.14,599.02 2403.73,418.19"/>
        <lane id="E25_2" index="2" speed="13.89" length="202.18" shape="2497.00,597.59 2406.59,416.76"/>
    </edge>
    <edge id="E26" from="J26" to="J25" priority="-1">
        <lane id="E26_0" index="0" speed="13.89" length="312.62" shape="2595.45,901.52 2496.59,604.94"/>
        <lane id="E26_1" index="1" speed="13.89" length="312.62" shape="2598.48,900.51 2499.62,603.93"/>
    </edge>
    <edge id="E27" from="J24" to="J27" priority="-1">
        <lane id="E27_0" index="0" speed="13.89" length="282.40" shape="2395.20,386.40 2395.20,104.00"/>
        <lane id="E27_1" index="1" speed="13.89" length="282.40" shape="2398.40,386.40 2398.40,104.00"/>
    </edge>
    <edge id="E28" from="J27" to="J28" priority="-1">
        <lane id="E28_0" index="0" speed="13.89" length="396.00" shape="2392.00,96.00 2392.00,-300.00"/>
        <lane id="E28_1" index="1" speed="13.89" length="396.00" shape="2395.20,96.00 2395.20,-300.00"/>
        <lane id="E28_2" index="2" speed="13.89" length="396.00" shape="2398.40,96.00 2398.40,-300.00"/>
    </edge>
    <edge id="E29" from="J24" to="J29" priority="-1">
        <lane id="E29_0" index="0" speed="13.89" length="495.41" shape="2415.96,395.20 2911.37,395.20"/>
        <lane id="E29_1" index="1" speed="13.89" length="495.41" shape="2415.96,398.40 2911.37,398.40"/>
    </edge>
    <edge id="E30" from="J29" to="J30" priority="-1">
        <lane id="E30_0" index="0" speed="13.89" length="476.44" shape="2922.11,396.26 3389.30,489.70"/>
        <lane id="E30_1" index="1" speed="13.89" length="476.44" shape="2921.49,399.40 3388.67,492.84"/>
        <lane id="E30_2" index="2" speed="13.89" length="476.44" shape="2920.86,402.54 3388.05,495.98"/>
    </edge>
    <edge id="E31" from="J30" to="J31" priority="-1">
        <lane id="E31_0" index="0" speed="13.89" length="385.57" shape="3398.40,485.57 3398.40,100.00"/>
    </edge>
    <edge id="E32" from="J30" to="J33" priority="-1">
        <lane id="E32_0" index="0" speed="13.89" length="427.06" shape="3410.57,497.70 3824.88,601.27"/>
        <lane id="E32_1" index="1" speed="13.89" length="427.06" shape="3409.80,500.80 3824.11,604.38"/>
    </edge>
    <edge id="E33" from="J33" to="J34" priority="-1">
        <lane id="E33_0" index="0" speed="13.89" length="186.14" shape="3831.00,613.71 3997.49,696.95"/>
    </edge>
    <edge id="E34" from="J34" to="J35" priority="-1">
        <lane id="E34_0" index="0" speed="13.89" length="312.73" shape="4004.84,696.55 4301.52,795.45"/>
        <lane id="E34_1" index="1" speed="13.89" length="312.73" shape="4003.82,699.59 4300.51,798.48"/>
    </edge>
    <edge id="E35" from="J30" to="J36" priority="-1">
        <lane id="E35_0" index="0" speed="13.89" length="385.30" shape="3401.60,514.70 3401.60,900.00"/>
    </edge>
    <edge id="E36" from="J36" to="J37" priority="-1">
        <lane id="E36_0" index="0" speed="13.89" length="196.00" shape="3398.40,900.00 3398.40,704.00"/>
    </edge>
    <edge id="E37" from="J37" to="J30" priority="-1">
        <lane id="E37_0" index="0" speed="13.89" length="181.30" shape="3392.00,696.00 3392.00,514.70"/>
        <lane id="E37_1" index="1" speed="13.89" length="181.30" shape="3395.20,696.00 3395.20,514.70"/>
        <lane id="E37_2" index="2" speed="13.89" length="181.30" shape="3398.40,696.00 3398.40,514.70"/>
    </edge>

    <tlLogic id="J17" type="static" programID="0" offset="0">
        <phase duration="33" state="GGgrrrGGgrrr"/>
        <phase duration="5"  state="yyyrrryyyrrr"/>
        <phase duration="33" state="rrrGGgrrrGGg"/>
        <phase duration="5"  state="rrryyyrrryyy"/>
    </tlLogic>
    <tlLogic id="J24" type="static" programID="0" offset="0">
        <phase duration="33" state="rrrrGGgrrrrGGGg"/>
        <phase duration="5"  state="rrrryyyrrrryyyy"/>
        <phase duration="33" state="GGGgrrrGGGgrrrr"/>
        <phase duration="5"  state="yyyyrrryyyyrrrr"/>
    </tlLogic>
    <tlLogic id="J30" type="static" programID="0" offset="0">
        <phase duration="33" state="rrrGGGgrrrGGGg"/>
        <phase duration="5"  state="rrryyyyrrryyyy"/>
        <phase duration="33" state="GGgrrrrGGgrrrr"/>
        <phase duration="5"  state="yyyrrrryyyrrrr"/>
    </tlLogic>

    <junction id="J15" type="dead_end" x="1100.00" y="600.00" incLanes="E15_0" intLanes="" shape="1100.00,600.00 1100.00,603.20 1100.00,600.00"/>
    <junction id="J16" type="priority" x="1600.00" y="600.00" incLanes="E13_0" intLanes=":J16_0_0 :J16_0_1" shape="1604.00,600.00 1604.00,593.60 1600.97,594.43 1599.03,595.97 1597.79,596.56 1596.00,596.80 1596.00,600.00">
        <request index="0" response="00" foes="00" cont="0"/>
        <request index="1" response="00" foes="00" cont="0"/>
    </junction>