<?xml version="1.0" encoding="UTF-8"?>

<!-- generated on enter-date-here by Eclipse SUMO sumo Version 1.19.0
-->

<configuration xmlns:xsi="http://www.w3.org/2001/XMLSchema-instance" xsi:noNamespaceSchemaLocation="http://sumo.dlr.de/xsd/sumoConfiguration.xsd">

    <input>
        <net-file value="StoneChurch.net.xml" synonymes="n net" type="FILE" help="Load road network description from FILE"/>
        <route-files value="StoneChurch.rou.xml" synonymes="r routes" type="FILE" help="Load routes descriptions from FILE(s)"/>
        <additional-files value="StoneChurch.add.xml" synonymes="a" type="FILE" help="Load additional information from FILE(s)"/>
    </input>

    <output>
        <queue-output value="" type="FILE" help="Save the vehicle queues at the junctions (experimental)"/>
    </output>

    <time>
        <begin value="0" synonymes="b" type="TIME" help="Defines the begin time in seconds; The simulation starts at this time"/>
        <end value="1000" synonymes="e" type="TIME" help="Defines the end time in seconds; The simulation ends at this time"/>
        <step-length value="0.25" />
    </time>
    <report>
        <verbose value="true" synonymes="v" type="BOOL" help="Switches to verbose output"/>
        <no-step-log value="true" type="BOOL" help="Disable console output of current simulation step"/>
    </report>

</configuration>