<?xml version="1.0" encoding="UTF-8"?>

<!-- generated on 2024-06-12 12:25:29 by Eclipse SUMO netedit Version 1.19.0
-->

<routes xmlns:xsi="http://www.w3.org/2001/XMLSchema-instance" xsi:noNamespaceSchemaLocation="http://sumo.dlr.de/xsd/routes_file.xsd">
    <!-- Vehicles, persons and containers (sorted by depart) -->
    <flow id="f_0" begin="0.00" end="3600.00" probability="0.2999999999999999889">
        <route edges="3 -4"/>
    </flow>
    <flow id="f_1" begin="0.00" end="3600.00" probability="0.2999999999999999889">
        <route edges="1 -3"/>
    </flow>
    <flow id="f_2" begin="0.00" end="3600.00" probability="0.1">
        <route edges="2 -0"/>
    </flow>
    <flow id="f_3" begin="0.00" end="3600.00" probability="0.1">
        <route edges="0 -2"/>
    </flow>
    <flow id="f_4" begin="0.00" end="3600.00" probability="0.01">
        <route edges="3 -2"/>
    </flow>
    <flow id="f_5" begin="0.00" end="3600.00" probability="0.01">
        <route edges="1 -0"/>
    </flow>
    <flow id="f_6" begin="0.00" end="3600.00" probability="0.01">
        <route edges="0 -4"/>
    </flow>
    <flow id="f_7" begin="0.00" end="3600.00" probability="0.01">
        <route edges="2 -3"/>
    </flow>
</routes>
