<?xml version="1.0" encoding="UTF-8"?>

<!-- generated on 2024-03-27 15:31:09 by Eclipse SUMO sumo Version 1.19.0
-->

<configuration xmlns:xsi="http://www.w3.org/2001/XMLSchema-instance" xsi:noNamespaceSchemaLocation="http://sumo.dlr.de/xsd/sumoConfiguration.xsd">

    <input>
        <net-file value="mainofframp.net.xml" synonymes="n net" type="FILE" help="Load road network description from FILE"/>
        <route-files value="mainofframp.rou.xml" synonymes="r routes" type="FILE" help="Load routes descriptions from FILE(s)"/>
    </input>

    <output>
        <precision value="2" type="INT" help="Defines the number of digits after the comma for floating point output"/>
        <precision.geo value="6" type="INT" help="Defines the number of digits after the comma for lon,lat output"/>
        <human-readable-time value="false" synonymes="H" type="BOOL" help="Write time values as hour:minute:second or day:hour:minute:second rather than seconds"/>
        <fcd-output value="mainofframp-fcd.xml" type="FILE" help="Save the Floating Car Data"/>
        <queue-output value="mainofframp-queue.xml" type="FILE" help="Save the vehicle queues at the junctions (experimental)"/>

    </output>

    <time>
        <begin value="0" synonymes="b" type="TIME" help="Defines the begin time in seconds; The simulation starts at this time"/>
        <end value="500" synonymes="e" type="TIME" help="Defines the end time in seconds; The simulation ends at this time"/>
    </time>

</configuration>
