<?xml version="1.0" encoding="UTF-8"?>

<!-- generated on 2024-03-27 20:21:04 by Eclipse SUMO netedit Version 1.19.0
<configuration xmlns:xsi="http://www.w3.org/2001/XMLSchema-instance" xsi:noNamespaceSchemaLocation="http://sumo.dlr.de/xsd/neteditConfiguration.xsd">

    <input>
        <route-files value="C:\Users\sioldead\Sumo\MainStreet-403-Ramp\mainofframp.rou.xml"/>
        <sumo-net-file value="C:\Users\sioldead\Sumo\MainStreet-403-Ramp\mainofframp.net.xml"/>
    </input>

    <output>
        <output-file value="C:\Users\sioldead\Sumo\MainStreet-403-Ramp\mainofframp.net.xml"/>
    </output>

    <processing>
        <geometry.min-radius.fix.railways value="false"/>
        <geometry.max-grade.fix value="false"/>
        <offset.disable-normalization value="true"/>
        <lefthand value="0"/>
    </processing>

    <junctions>
        <no-turnarounds value="true"/>
        <junctions.corner-detail value="5"/>
        <junctions.limit-turn-speed value="5.50"/>
        <rectangular-lane-cut value="0"/>
    </junctions>

    <pedestrian>
        <walkingareas value="0"/>
    </pedestrian>

</configuration>
-->

<net version="1.16" junctionCornerDetail="5" limitTurnSpeed="5.50" xmlns:xsi="http://www.w3.org/2001/XMLSchema-instance" xsi:noNamespaceSchemaLocation="http://sumo.dlr.de/xsd/net_file.xsd">

    <location netOffset="-588287.30,-4789599.59" convBoundary="0.00,0.00,1334.44,624.56" origBoundary="-79.914249,43.253410,-79.895806,43.263233" projParameter="+proj=utm +zone=17 +ellps=WGS84 +datum=WGS84 +units=m +no_defs"/>

    <type id="highway.motorway" priority="14" numLanes="2" speed="39.44" allow="private emergency authority army vip passenger hov taxi bus coach delivery truck trailer motorcycle evehicle custom1 custom2" oneway="1"/>
    <type id="highway.motorway_link" priority="9" numLanes="1" speed="22.22" allow="private emergency authority army vip passenger hov taxi bus coach delivery truck trailer motorcycle evehicle custom1 custom2" oneway="1"/>
    <type id="highway.primary" priority="12" numLanes="2" speed="27.78" disallow="tram rail_urban rail rail_electric rail_fast ship" oneway="0"/>

    <edge id=":100522204_0" function="internal">
        <lane id=":100522204_0_0" index="0" allow="private emergency authority army vip passenger hov taxi bus coach delivery truck trailer motorcycle evehicle custom1 custom2" speed="25.00" length="7.99" shape="486.64,207.70 480.28,202.92"/>
        <lane id=":100522204_0_1" index="1" allow="private emergency authority army vip passenger hov taxi bus coach delivery truck trailer motorcycle evehicle custom1 custom2" speed="25.00" length="7.99" shape="488.59,205.16 482.17,200.34"/>
    </edge>
    <edge id=":100524302_0" function="internal">
        <lane id=":100524302_0_0" index="0" allow="private emergency authority army vip passenger hov taxi bus coach delivery truck trailer motorcycle evehicle custom1 custom2" speed="22.22" length="7.84" shape="424.67,448.48 425.38,450.75 426.21,452.21 426.97,453.67 427.50,455.97"/>
        <lane id=":100524302_0_1" index="1" allow="private emergency authority army vip passenger hov taxi bus coach delivery truck trailer motorcycle evehicle custom1 custom2" speed="22.22" length="7.84" shape="421.53,449.13 422.23,451.31 423.05,452.72 423.80,454.13 424.32,456.35"/>
        <lane id=":100524302_0_2" index="2" allow="private emergency authority army vip passenger hov taxi bus coach delivery truck trailer motorcycle evehicle custom1 custom2" speed="22.22" length="7.84" shape="421.53,449.13 421.73,451.35 421.46,452.91 421.12,454.47 421.14,456.72"/>
    </edge>
    <edge id=":150872247-AddedOnRampNode_0" function="internal">
        <lane id=":150872247-AddedOnRampNode_0_0" index="0" allow="private emergency authority army vip passenger hov taxi bus coach delivery truck trailer motorcycle evehicle custom1 custom2" speed="25.00" length="8.00" shape="656.39,286.26 661.69,292.25"/>
    </edge>
    <edge id=":1911130635_0" function="internal">
        <lane id=":1911130635_0_0" index="0" allow="private emergency authority army vip passenger hov taxi bus coach delivery truck trailer motorcycle evehicle custom1 custom2" speed="22.22" length="6.47" shape="405.65,332.36 405.48,334.17 405.80,335.43 406.23,336.70 406.39,338.56"/>
        <lane id=":1911130635_0_1" index="1" allow="private emergency authority army vip passenger hov taxi bus coach delivery truck trailer motorcycle evehicle custom1 custom2" speed="22.22" length="6.47" shape="405.65,332.36 404.97,334.19 404.19,335.35 403.53,336.53 403.19,338.41"/>
    </edge>
    <edge id=":3954117875_0" function="internal">
        <lane id=":3954117875_0_0" index="0" allow="private emergency authority army vip passenger hov taxi bus coach delivery truck trailer motorcycle evehicle custom1 custom2" speed="25.00" length="8.26" shape="585.36,283.51 583.11,282.40 581.23,282.33 579.34,282.26 577.09,281.16"/>
        <lane id=":3954117875_0_1" index="1" allow="private emergency authority army vip passenger hov taxi bus coach delivery truck trailer motorcycle evehicle custom1 custom2" speed="25.00" length="8.26" shape="585.36,283.51 579.04,278.62"/>
        <lane id=":3954117875_0_2" index="2" allow="private emergency authority army vip passenger hov taxi bus coach delivery truck trailer motorcycle evehicle custom1 custom2" speed="25.00" length="8.26" shape="587.32,280.99 580.98,276.09"/>
    </edge>
    <edge id=":90791676_0" function="internal">
        <lane id=":90791676_0_0" index="0" allow="private emergency authority army vip passenger hov taxi bus coach delivery truck trailer motorcycle evehicle custom1 custom2" speed="23.61" length="3.10" shape="676.66,357.77 674.03,356.13"/>
    </edge>
    <edge id=":90791676_1" function="internal">
        <lane id=":90791676_1_0" index="0" allow="private emergency authority army vip passenger hov taxi bus coach delivery truck trailer motorcycle evehicle custom1 custom2" speed="25.00" length="3.24" shape="678.39,355.08 675.63,353.16"/>
        <lane id=":90791676_1_1" index="1" allow="private emergency authority army vip passenger hov taxi bus coach delivery truck trailer motorcycle evehicle custom1 custom2" speed="25.00" length="3.24" shape="680.12,352.39 677.56,350.60"/>
    </edge>
    <edge id=":90860142_0" function="internal">
        <lane id=":90860142_0_0" index="0" allow="private emergency authority army vip passenger hov taxi bus coach delivery truck trailer motorcycle evehicle custom1 custom2" speed="25.00" length="2.90" shape="717.93,344.56 720.25,346.30"/>
    </edge>
    <edge id=":90860142_1" function="internal">
        <lane id=":90860142_1_0" index="0" allow="private emergency authority army vip passenger hov taxi bus coach delivery truck trailer motorcycle evehicle custom1 custom2" speed="25.00" length="3.00" shape="715.98,347.12 718.37,348.89"/>
        <lane id=":90860142_1_1" index="1" allow="private emergency authority army vip passenger hov taxi bus coach delivery truck trailer motorcycle evehicle custom1 custom2" speed="25.00" length="3.00" shape="714.05,349.67 716.49,351.48"/>
    </edge>
    <edge id=":9273598946_0" function="internal">
        <lane id=":9273598946_0_0" index="0" disallow="tram rail_urban rail rail_electric rail_fast ship" speed="13.89" length="0.10" shape="434.92,510.73 434.92,510.73"/>
        <lane id=":9273598946_0_1" index="1" disallow="tram rail_urban rail rail_electric rail_fast ship" speed="13.89" length="0.10" shape="435.44,507.57 435.44,507.57"/>
    </edge>
    <edge id=":cluster_1815468745_1975477835_0" function="internal">
        <lane id=":cluster_1815468745_1975477835_0_0" index="0" disallow="tram rail_urban rail rail_electric rail_fast ship" speed="13.89" length="0.37" shape="541.40,530.50 540.98,530.42"/>
        <lane id=":cluster_1815468745_1975477835_0_1" index="1" disallow="tram rail_urban rail rail_electric rail_fast ship" speed="13.89" length="0.37" shape="541.97,527.35 541.60,527.28"/>
        <lane id=":cluster_1815468745_1975477835_0_2" index="2" disallow="tram rail_urban rail rail_electric rail_fast ship" speed="13.89" length="0.37" shape="542.54,524.20 542.23,524.14"/>
    </edge>
    <edge id=":cluster_1815468745_1975477835_3" function="internal">
        <lane id=":cluster_1815468745_1975477835_3_0" index="0" disallow="tram rail_urban rail rail_electric rail_fast ship" speed="13.89" length="0.20" shape="544.10,514.73 544.24,514.75"/>
        <lane id=":cluster_1815468745_1975477835_3_1" index="1" disallow="tram rail_urban rail rail_electric rail_fast ship" speed="13.89" length="0.20" shape="543.48,517.86 543.67,517.90"/>
        <lane id=":cluster_1815468745_1975477835_3_2" index="2" disallow="tram rail_urban rail rail_electric rail_fast ship" speed="13.89" length="0.20" shape="542.85,521.00 543.10,521.05"/>
    </edge>
    <edge id=":cluster_1975477834_89188474_9273598920_9273598948_0" function="internal">
        <lane id=":cluster_1975477834_89188474_9273598920_9273598948_0_0" index="0" disallow="tram rail_urban rail rail_electric rail_fast ship" speed="13.89" length="31.73" shape="434.82,510.71 403.51,505.63"/>
        <lane id=":cluster_1975477834_89188474_9273598920_9273598948_0_1" index="1" disallow="tram rail_urban rail rail_electric rail_fast ship" speed="13.89" length="31.73" shape="435.34,507.55 404.01,502.47"/>
    </edge>
    <edge id=":cluster_1975477834_89188474_9273598920_9273598948_2" function="internal">
        <lane id=":cluster_1975477834_89188474_9273598920_9273598948_2_0" index="0" allow="private emergency authority army vip passenger hov taxi bus coach delivery truck trailer motorcycle evehicle custom1 custom2" speed="7.45" length="11.17" shape="430.53,487.17 430.85,489.87 432.12,491.98 434.34,493.48 437.52,494.37"/>
        <lane id=":cluster_1975477834_89188474_9273598920_9273598948_2_1" index="1" allow="private emergency authority army vip passenger hov taxi bus coach delivery truck trailer motorcycle evehicle custom1 custom2" speed="8.79" length="15.93" shape="427.34,487.00 427.76,490.99 429.52,494.07 432.60,496.25 437.01,497.53"/>
    </edge>
    <edge id=":cluster_1975477834_89188474_9273598920_9273598948_4" function="internal">
        <lane id=":cluster_1975477834_89188474_9273598920_9273598948_4_0" index="0" allow="private emergency authority army vip passenger hov taxi bus coach delivery truck trailer motorcycle evehicle custom1 custom2" speed="10.97" length="29.83" shape="424.14,486.83 422.51,494.83 418.61,500.10 412.45,502.65 404.01,502.47"/>
    </edge>
    <edge id=":cluster_1975477834_89188474_9273598920_9273598948_5" function="internal">
        <lane id=":cluster_1975477834_89188474_9273598920_9273598948_5_0" index="0" disallow="tram rail_urban rail rail_electric rail_fast ship" speed="13.89" length="31.79" shape="406.13,489.35 437.52,494.37"/>
        <lane id=":cluster_1975477834_89188474_9273598920_9273598948_5_1" index="1" disallow="tram rail_urban rail rail_electric rail_fast ship" speed="13.89" length="31.79" shape="405.62,492.51 437.01,497.53"/>
        <lane id=":cluster_1975477834_89188474_9273598920_9273598948_5_2" index="2" disallow="tram rail_urban rail rail_electric rail_fast ship" speed="13.89" length="31.79" shape="405.11,495.66 436.50,500.69"/>
    </edge>
    <edge id=":cluster_1975477834_89188474_9273598920_9273598948_8" function="internal">
        <lane id=":cluster_1975477834_89188474_9273598920_9273598948_8_0" index="0" disallow="tram rail_urban rail rail_electric rail_fast ship" speed="4.86" length="6.68" shape="405.11,495.66 407.39,497.78 407.97,499.62 407.01,500.95"/>
    </edge>
    <edge id=":cluster_1975477834_89188474_9273598920_9273598948_9" function="internal">
        <lane id=":cluster_1975477834_89188474_9273598920_9273598948_9_0" index="0" disallow="tram rail_urban rail rail_electric rail_fast ship" speed="4.86" length="3.39" shape="407.01,500.95 406.84,501.18 404.01,502.47"/>
    </edge>
    <edge id=":cluster_249058791_270947104_7841310039_9491381702_0" function="internal">
        <lane id=":cluster_249058791_270947104_7841310039_9491381702_0_0" index="0" disallow="tram rail_urban rail rail_electric rail_fast ship" speed="13.89" length="24.90" shape="388.34,503.18 364.05,498.95"/>
        <lane id=":cluster_249058791_270947104_7841310039_9491381702_0_1" index="1" disallow="tram rail_urban rail rail_electric rail_fast ship" speed="13.89" length="24.90" shape="388.86,499.90 383.09,497.47 377.99,496.73 372.25,496.54 364.54,495.78"/>
        <lane id=":cluster_249058791_270947104_7841310039_9491381702_0_2" index="2" disallow="tram rail_urban rail rail_electric rail_fast ship" speed="13.89" length="24.90" shape="388.86,499.90 383.18,496.98 378.29,495.15 372.72,493.88 365.03,492.62"/>
    </edge>
    <edge id=":cluster_249058791_270947104_7841310039_9491381702_3" function="internal">
        <lane id=":cluster_249058791_270947104_7841310039_9491381702_3_0" index="0" disallow="tram rail_urban rail rail_electric rail_fast ship" speed="5.08" length="6.47" shape="388.86,499.90 386.63,497.83 386.06,496.03 386.96,494.78"/>
    </edge>
    <edge id=":cluster_249058791_270947104_7841310039_9491381702_8" function="internal">
        <lane id=":cluster_249058791_270947104_7841310039_9491381702_8_0" index="0" disallow="tram rail_urban rail rail_electric rail_fast ship" speed="5.08" length="3.40" shape="386.96,494.78 387.16,494.50 389.93,493.23"/>
    </edge>
    <edge id=":cluster_249058791_270947104_7841310039_9491381702_4" function="internal">
        <lane id=":cluster_249058791_270947104_7841310039_9491381702_4_0" index="0" disallow="tram rail_urban rail rail_electric rail_fast ship" speed="13.89" length="24.73" shape="366.49,483.13 390.95,486.91"/>
        <lane id=":cluster_249058791_270947104_7841310039_9491381702_4_1" index="1" disallow="tram rail_urban rail rail_electric rail_fast ship" speed="13.89" length="24.73" shape="366.00,486.30 390.44,490.07"/>
        <lane id=":cluster_249058791_270947104_7841310039_9491381702_4_2" index="2" disallow="tram rail_urban rail rail_electric rail_fast ship" speed="13.89" length="24.73" shape="365.51,489.46 389.93,493.23"/>
    </edge>
    <edge id=":cluster_249058791_270947104_7841310039_9491381702_7" function="internal">
        <lane id=":cluster_249058791_270947104_7841310039_9491381702_7_0" index="0" disallow="tram rail_urban rail rail_electric rail_fast ship" speed="3.65" length="1.44" shape="365.51,489.46 366.58,490.43"/>
    </edge>
    <edge id=":cluster_249058791_270947104_7841310039_9491381702_9" function="internal">
        <lane id=":cluster_249058791_270947104_7841310039_9491381702_9_0" index="0" disallow="tram rail_urban rail rail_electric rail_fast ship" speed="3.65" length="3.23" shape="366.58,490.43 366.85,491.28 366.33,492.01 365.03,492.62"/>
    </edge>
    <edge id=":cluster_7841224635_7841310010_0" function="internal">
        <lane id=":cluster_7841224635_7841310010_0_0" index="0" disallow="tram rail_urban rail rail_electric rail_fast ship" speed="13.89" length="0.27" shape="508.56,523.97 508.33,523.92"/>
        <lane id=":cluster_7841224635_7841310010_0_1" index="1" disallow="tram rail_urban rail rail_electric rail_fast ship" speed="13.89" length="0.27" shape="509.19,520.83 508.93,520.78"/>
        <lane id=":cluster_7841224635_7841310010_0_2" index="2" disallow="tram rail_urban rail rail_electric rail_fast ship" speed="13.89" length="0.27" shape="509.81,517.69 509.53,517.63"/>
    </edge>
    <edge id=":cluster_7841224635_7841310010_3" function="internal">
        <lane id=":cluster_7841224635_7841310010_3_0" index="0" disallow="tram rail_urban rail rail_electric rail_fast ship" speed="13.89" length="0.33" shape="511.34,508.21 511.69,508.27"/>
        <lane id=":cluster_7841224635_7841310010_3_1" index="1" disallow="tram rail_urban rail rail_electric rail_fast ship" speed="13.89" length="0.33" shape="510.74,511.35 511.06,511.41"/>
        <lane id=":cluster_7841224635_7841310010_3_2" index="2" disallow="tram rail_urban rail rail_electric rail_fast ship" speed="13.89" length="0.33" shape="510.14,514.49 510.44,514.55"/>
    </edge>
    <edge id=":cluster_7841224636_7841310008_9273598943_0" function="internal">
        <lane id=":cluster_7841224636_7841310008_9273598943_0_0" index="0" disallow="tram rail_urban rail rail_electric rail_fast ship" speed="13.89" length="6.94" shape="489.00,520.21 486.64,513.93"/>
        <lane id=":cluster_7841224636_7841310008_9273598943_0_1" index="1" disallow="tram rail_urban rail rail_electric rail_fast ship" speed="13.89" length="6.94" shape="489.60,517.07 486.18,510.76"/>
    </edge>
    <edge id=":cluster_7841224636_7841310008_9273598943_2" function="internal">
        <lane id=":cluster_7841224636_7841310008_9273598943_2_0" index="0" disallow="tram rail_urban rail rail_electric rail_fast ship" speed="13.89" length="6.50" shape="484.91,501.98 487.07,502.53 488.47,503.20 489.87,503.89 492.02,504.49"/>
        <lane id=":cluster_7841224636_7841310008_9273598943_2_1" index="1" disallow="tram rail_urban rail rail_electric rail_fast ship" speed="13.89" length="6.50" shape="485.39,505.30 487.23,505.80 488.41,506.43 489.58,507.09 491.41,507.64"/>
        <lane id=":cluster_7841224636_7841310008_9273598943_2_2" index="2" disallow="tram rail_urban rail rail_electric rail_fast ship" speed="13.89" length="6.50" shape="485.87,508.62 487.39,509.06 488.35,509.67 489.30,510.29 490.81,510.78"/>
    </edge>
    <edge id=":cluster_7841310018_9491383444_0" function="internal">
        <lane id=":cluster_7841310018_9491383444_0_0" index="0" disallow="tram rail_urban rail rail_electric rail_fast ship" speed="13.89" length="0.30" shape="328.86,493.51 328.57,493.46"/>
        <lane id=":cluster_7841310018_9491383444_0_1" index="1" disallow="tram rail_urban rail rail_electric rail_fast ship" speed="13.89" length="0.30" shape="329.35,490.35 329.05,490.30"/>
        <lane id=":cluster_7841310018_9491383444_0_2" index="2" disallow="tram rail_urban rail rail_electric rail_fast ship" speed="13.89" length="0.30" shape="329.83,487.18 329.54,487.14"/>
    </edge>
    <edge id=":cluster_7841310018_9491383444_3" function="internal">
        <lane id=":cluster_7841310018_9491383444_3_0" index="0" disallow="tram rail_urban rail rail_electric rail_fast ship" speed="13.89" length="0.30" shape="331.00,477.65 331.30,477.70"/>
        <lane id=":cluster_7841310018_9491383444_3_1" index="1" disallow="tram rail_urban rail rail_electric rail_fast ship" speed="13.89" length="0.30" shape="330.51,480.81 330.81,480.86"/>
        <lane id=":cluster_7841310018_9491383444_3_2" index="2" disallow="tram rail_urban rail rail_electric rail_fast ship" speed="13.89" length="0.30" shape="330.02,483.98 330.32,484.02"/>
    </edge>

    <edge id="-156268076#1" from="cluster_7841310018_9491383444" to="cluster_7841310023_9491383445" priority="12" type="highway.primary" shape="329.93,485.58 307.30,482.10">
        <lane id="-156268076#1_0" index="0" disallow="tram rail_urban rail rail_electric rail_fast ship" speed="13.89" length="22.29" shape="328.57,493.46 306.53,490.08"/>
        <lane id="-156268076#1_1" index="1" disallow="tram rail_urban rail rail_electric rail_fast ship" speed="13.89" length="22.29" shape="329.05,490.30 307.02,486.91"/>
        <lane id="-156268076#1_2" index="2" disallow="tram rail_urban rail rail_electric rail_fast ship" speed="13.89" length="22.29" shape="329.54,487.14 307.51,483.75"/>
        <param key="ref" value="8"/>
    </edge>
    <edge id="-156268076#2" from="cluster_249058791_270947104_7841310039_9491381702" to="cluster_7841310018_9491383444" priority="12" type="highway.primary" shape="365.27,491.04 329.93,485.58">
        <lane id="-156268076#2_0" index="0" disallow="tram rail_urban rail rail_electric rail_fast ship" speed="13.89" length="35.61" shape="364.05,498.95 328.86,493.51"/>
        <lane id="-156268076#2_1" index="1" disallow="tram rail_urban rail rail_electric rail_fast ship" speed="13.89" length="35.61" shape="364.54,495.78 329.35,490.35"/>
        <lane id="-156268076#2_2" index="2" disallow="tram rail_urban rail rail_electric rail_fast ship" speed="13.89" length="35.61" shape="365.03,492.62 329.83,487.18"/>
        <param key="ref" value="8"/>
    </edge>
    <edge id="-840329606#0" from="cluster_7841224635_7841310010" to="cluster_7841224636_7841310008_9273598943" priority="12" type="highway.primary" shape="509.98,516.09 488.68,512.00">
        <lane id="-840329606#0_0" index="0" disallow="tram rail_urban rail rail_electric rail_fast ship" speed="13.89" length="19.68" shape="508.33,523.92 489.00,520.21"/>
        <lane id="-840329606#0_1" index="1" disallow="tram rail_urban rail rail_electric rail_fast ship" speed="13.89" length="19.68" shape="508.93,520.78 489.60,517.07"/>
        <lane id="-840329606#0_2" index="2" disallow="tram rail_urban rail rail_electric rail_fast ship" speed="13.89" length="19.68" shape="509.53,517.63 490.21,513.92"/>
        <param key="ref" value="8"/>
    </edge>
    <edge id="-840329606#1" from="cluster_1815468745_1975477835" to="cluster_7841224635_7841310010" priority="12" type="highway.primary" shape="542.68,522.60 509.98,516.09">
        <lane id="-840329606#1_0" index="0" disallow="tram rail_urban rail rail_electric rail_fast ship" speed="13.89" length="33.05" shape="540.98,530.42 508.56,523.97"/>
        <lane id="-840329606#1_1" index="1" disallow="tram rail_urban rail rail_electric rail_fast ship" speed="13.89" length="33.05" shape="541.60,527.28 509.19,520.83"/>
        <lane id="-840329606#1_2" index="2" disallow="tram rail_urban rail rail_electric rail_fast ship" speed="13.89" length="33.05" shape="542.23,524.14 509.81,517.69"/>
        <param key="ref" value="8"/>
    </edge>
    <edge id="-840329606#2" from="1124416718" to="cluster_1815468745_1975477835" priority="12" type="highway.primary" shape="549.51,523.83 542.68,522.60">
        <lane id="-840329606#2_0" index="0" disallow="tram rail_urban rail rail_electric rail_fast ship" speed="13.89" length="6.80" shape="548.09,531.70 541.40,530.50"/>
        <lane id="-840329606#2_1" index="1" disallow="tram rail_urban rail rail_electric rail_fast ship" speed="13.89" length="6.80" shape="548.66,528.55 541.97,527.35"/>
        <lane id="-840329606#2_2" index="2" disallow="tram rail_urban rail rail_electric rail_fast ship" speed="13.89" length="6.80" shape="549.23,525.40 542.54,524.20"/>
        <param key="ref" value="8"/>
    </edge>
    <edge id="1005107471#0" from="cluster_7841224636_7841310008_9273598943" to="9273598946" priority="12" type="highway.primary" spreadType="center" shape="488.68,512.00 470.15,514.82 435.18,509.15">
        <lane id="1005107471#0_0" index="0" disallow="tram rail_urban rail rail_electric rail_fast ship" speed="13.89" length="51.88" shape="486.64,513.93 470.14,516.44 434.92,510.73"/>
        <lane id="1005107471#0_1" index="1" disallow="tram rail_urban rail rail_electric rail_fast ship" speed="13.89" length="51.88" shape="486.18,510.76 470.16,513.20 435.44,507.57"/>
        <param key="ref" value="8"/>
    </edge>
    <edge id="1005107471#1" from="9273598946" to="cluster_1975477834_89188474_9273598920_9273598948" priority="12" type="highway.primary" spreadType="center" shape="435.18,509.15 403.76,504.05">
        <lane id="1005107471#1_0" index="0" disallow="tram rail_urban rail rail_electric rail_fast ship" speed="13.89" length="0.10" shape="434.92,510.73 434.82,510.71"/>
        <lane id="1005107471#1_1" index="1" disallow="tram rail_urban rail rail_electric rail_fast ship" speed="13.89" length="0.10" shape="435.44,507.57 435.34,507.55"/>
        <param key="ref" value="8"/>
    </edge>
    <edge id="1005107475" from="cluster_1975477834_89188474_9273598920_9273598948" to="cluster_249058791_270947104_7841310039_9491381702" priority="12" type="highway.primary" spreadType="center" shape="403.76,504.05 388.64,501.61 371.28,491.96">
        <lane id="1005107475_0" index="0" disallow="tram rail_urban rail rail_electric rail_fast ship" speed="13.89" length="15.38" shape="403.51,505.63 388.34,503.18"/>
        <lane id="1005107475_1" index="1" disallow="tram rail_urban rail rail_electric rail_fast ship" speed="13.89" length="15.38" shape="404.01,502.47 389.17,500.08 388.86,499.90"/>
        <param key="ref" value="8"/>
    </edge>
    <edge id="11305361" from="90791676" to="1911130635" priority="9" type="highway.motorway_link" spreadType="center" shape="675.38,356.96 646.37,339.07 555.08,284.99 543.00,277.48 531.26,271.37 518.85,266.53 505.13,263.11 492.03,261.65 479.40,262.46 465.59,265.83 453.31,270.01 441.64,276.97 431.17,285.38 421.80,295.91 414.04,307.59 408.36,321.06 404.93,335.38">
        <lane id="11305361_0" index="0" allow="private emergency authority army vip passenger hov taxi bus coach delivery truck trailer motorcycle evehicle custom1 custom2" speed="22.22" length="327.92" shape="674.03,356.13 646.37,339.07 555.08,284.99 543.00,277.48 531.26,271.37 518.85,266.53 505.13,263.11 492.03,261.65 479.40,262.46 465.59,265.83 453.31,270.01 441.64,276.97 431.17,285.38 421.80,295.91 414.04,307.59 408.36,321.06 405.65,332.36"/>
    </edge>
    <edge id="150872237" from="90860142" to="209227952" priority="14" type="highway.motorway" spreadType="center" shape="717.16,348.01 758.43,377.92 802.28,405.59 833.77,421.07 866.78,434.89 912.39,450.29 1080.99,502.81 1250.00,553.02 1284.31,565.91">
        <lane id="150872237_0" index="0" allow="private emergency authority army vip passenger hov taxi bus coach delivery truck trailer motorcycle evehicle custom1 custom2" speed="25.00" length="609.89" acceleration="1" shape="720.25,346.30 760.22,375.27 803.84,402.79 835.09,418.16 867.91,431.89 913.38,447.25 1081.92,499.75 1251.02,549.98 1285.44,562.91"/>
        <lane id="150872237_1" index="1" allow="private emergency authority army vip passenger hov taxi bus coach delivery truck trailer motorcycle evehicle custom1 custom2" speed="25.00" length="609.89" shape="718.37,348.89 758.43,377.92 802.28,405.59 833.77,421.07 866.78,434.89 912.39,450.29 1080.99,502.81 1250.00,553.02 1284.31,565.91"/>
        <lane id="150872237_2" index="2" allow="private emergency authority army vip passenger hov taxi bus coach delivery truck trailer motorcycle evehicle custom1 custom2" speed="25.00" length="609.89" shape="716.49,351.48 756.64,380.57 800.72,408.39 832.45,423.98 865.65,437.89 911.40,453.33 1080.06,505.87 1248.98,556.06 1283.18,568.91"/>
        <param key="ref" value="403"/>
    </edge>
    <edge id="150872239" from="cluster_249058791_270947104_7841310039_9491381702" to="cluster_1975477834_89188474_9273598920_9273598948" priority="12" type="highway.primary" spreadType="center" shape="390.44,490.07 425.98,495.77">
        <lane id="150872239_0" index="0" disallow="tram rail_urban rail rail_electric rail_fast ship" speed="13.89" length="15.38" shape="390.95,486.91 406.13,489.35"/>
        <lane id="150872239_1" index="1" disallow="tram rail_urban rail rail_electric rail_fast ship" speed="13.89" length="15.38" shape="390.44,490.07 405.62,492.51"/>
        <lane id="150872239_2" index="2" disallow="tram rail_urban rail rail_electric rail_fast ship" speed="13.89" length="15.38" shape="389.93,493.23 405.11,495.66"/>
        <param key="ref" value="8"/>
    </edge>
    <edge id="150872247" from="150872247-AddedOnRampNode" to="90860142" priority="9" type="highway.motorway_link" spreadType="center" shape="659.04,289.26 665.82,296.91 678.14,310.64 696.38,327.63 719.03,345.42">
        <lane id="150872247_0" index="0" allow="private emergency authority army vip passenger hov taxi bus coach delivery truck trailer motorcycle evehicle custom1 custom2" speed="25.00" length="77.00" shape="661.69,292.25 665.82,296.91 678.14,310.64 696.38,327.63 717.93,344.56"/>
    </edge>
    <edge id="150872247-AddedOnRampEdge" from="100523350" to="150872247-AddedOnRampNode" priority="9" type="highway.motorway_link" spreadType="center" shape="600.07,208.51 656.53,284.01 660.24,288.19">
        <lane id="150872247-AddedOnRampEdge_0" index="0" allow="private emergency authority army vip passenger hov taxi bus coach delivery truck trailer motorcycle evehicle custom1 custom2" speed="25.00" length="95.87" acceleration="1" shape="601.35,207.55 657.77,283.00 658.78,284.14"/>
        <lane id="150872247-AddedOnRampEdge_1" index="1" allow="private emergency authority army vip passenger hov taxi bus coach delivery truck trailer motorcycle evehicle custom1 custom2" speed="25.00" length="95.87" shape="598.79,209.47 655.29,285.02 656.39,286.26"/>
    </edge>
    <edge id="156268076#1" from="cluster_7841310023_9491383445" to="cluster_7841310018_9491383444" priority="12" type="highway.primary" shape="307.30,482.10 329.93,485.58">
        <lane id="156268076#1_0" index="0" disallow="tram rail_urban rail rail_electric rail_fast ship" speed="13.89" length="22.29" shape="308.96,474.26 331.00,477.65"/>
        <lane id="156268076#1_1" index="1" disallow="tram rail_urban rail rail_electric rail_fast ship" speed="13.89" length="22.29" shape="308.48,477.42 330.51,480.81"/>
        <lane id="156268076#1_2" index="2" disallow="tram rail_urban rail rail_electric rail_fast ship" speed="13.89" length="22.29" shape="307.99,480.59 330.02,483.98"/>
        <param key="ref" value="8"/>
    </edge>
    <edge id="156268076#2" from="cluster_7841310018_9491383444" to="cluster_249058791_270947104_7841310039_9491381702" priority="12" type="highway.primary" shape="329.93,485.58 365.27,491.04">
        <lane id="156268076#2_0" index="0" disallow="tram rail_urban rail rail_electric rail_fast ship" speed="13.89" length="35.61" shape="331.30,477.70 366.49,483.13"/>
        <lane id="156268076#2_1" index="1" disallow="tram rail_urban rail rail_electric rail_fast ship" speed="13.89" length="35.61" shape="330.81,480.86 366.00,486.30"/>
        <lane id="156268076#2_2" index="2" disallow="tram rail_urban rail rail_electric rail_fast ship" speed="13.89" length="35.61" shape="330.32,484.02 365.51,489.46"/>