<?xml version="1.0" encoding="UTF-8"?>

<!-- generated on 2024-05-13 13:41:53 by Eclipse SUMO duarouter Version 1.19.0
<configuration xmlns:xsi="http://www.w3.org/2001/XMLSchema-instance" xsi:noNamespaceSchemaLocation="http://sumo.dlr.de/xsd/duarouterConfiguration.xsd">

    <input>
        <net-file value="rymal-upperRedHill.net.xml"/>
        <route-files value="rymal-upperRedHill.trips.xml"/>
    </input>

    <output>
        <output-file value="rymal-upperRedHill.rou.xml"/>
    </output>

    <report>
        <ignore-errors value="true"/>
    </report>

</configuration>
-->

<routes xmlns:xsi="http://www.w3.org/2001/XMLSchema-instance" xsi:noNamespaceSchemaLocation="http://sumo.dlr.de/xsd/routes_file.xsd">
    <vehicle id="0" depart="0.00">
        <route edges="E15 E16 -E13 -E10"/>
    </vehicle>
    <vehicle id="1" depart="1.00">
        <route edges="-E6 -E5"/>
    </vehicle>
    <vehicle id="3" depart="3.00">
        <route edges="E7 E9 E10 -E11 -E12"/>
    </vehicle>
    <vehicle id="13" depart="13.00">
        <route edges="-E13 -E11 -E12"/>
    </vehicle>
    <vehicle id="17" depart="17.00">
        <route edges="E0 E1 E5 E6 E9 E10 E13"/>
    </vehicle>
    <vehicle id="19" depart="19.00">
        <route edges="E6 E9 E10 E13 E14"/>
    </vehicle>
    <vehicle id="20" depart="20.00">
        <route edges="E18 E19 -E13 -E11"/>
    </vehicle>
    <vehicle id="23" depart="23.00">
        <route edges="-E13 -E10 -E9 -E6"/>
    </vehicle>
    <vehicle id="24" depart="24.00">
        <route edges="E15 E16 -E13 -E10 -E9"/>
    </vehicle>
    <vehicle id="27" depart="27.00">
        <route edges="E16"/>
    </vehicle>
    <vehicle id="28" depart="28.00">
        <route edges="-E4 -E3 E2"/>
    </vehicle>
    <vehicle id="36" depart="36.00">
        <route edges="E6 -E7"/>
    </vehicle>
    <vehicle id="37" depart="37.00">
        <route edges="E16 -E13 -E10 -E9"/>
    </vehicle>
    <vehicle id="38" depart="38.00">
        <route edges="E7 E9 E10"/>
    </vehicle>
    <vehicle id="39" depart="39.00">
        <route edges="-E6"/>
    </vehicle>
    <vehicle id="44" depart="44.00">
        <route edges="-E13 -E11"/>
    </vehicle>
    <vehicle id="48" depart="48.00">
        <route edges="E9 E10 E13"/>
    </vehicle>
    <vehicle id="50" depart="50.00">
        <route edges="-E10 -E9 -E6 -E5 E2"/>
    </vehicle>
    <vehicle id="59" depart="59.00">
        <route edges="E15 E16 -E13"/>
    </vehicle>
    <vehicle id="62" depart="62.00">
        <route edges="-E10 -E9 -E7 -E8"/>
    </vehicle>
    <vehicle id="70" depart="70.00">
        <route edges="E10 E13"/>
    </vehicle>
    <vehicle id="73" depart="73.00">
        <route edges="E12 E11 -E10 -E9 -E6 -E5 E2"/>
    </vehicle>
    <vehicle id="75" depart="75.00">
        <route edges="E9 E10 E13 E17"/>
    </vehicle>
    <vehicle id="79" depart="79.00">
        <route edges="-E5"/>
    </vehicle>
    <vehicle id="82" depart="82.00">
        <route edges="E6 E9 E10 -E11"/>
    </vehicle>
    <vehicle id="85" depart="85.00">
        <route edges="E8 E7 E9 E10 E13 E14"/>
    </vehicle>
    <vehicle id="89" depart="89.00">
        <route edges="E1 E5 E6 E9 E10"/>
    </vehicle>
    <vehicle id="91" depart="91.00">
        <route edges="E9 E10 -E11 -E12"/>
    </vehicle>
    <vehicle id="92" depart="92.00">
        <route edges="E1 E5 E6 -E7 -E8"/>
    </vehicle>
    <vehicle id="94" depart="94.00">
        <route edges="-E4 -E3 E5 E6 E9 E10"/>
    </vehicle>
    <vehicle id="102" depart="102.00">
        <route edges="E11 -E10 -E9 -E6 -E5"/>
    </vehicle>
    <vehicle id="103" depart="103.00">
        <route edges="E1 E5 E6 E9 E10 -E11"/>
    </vehicle>
    <vehicle id="104" depart="104.00">
        <route edges="E0 E1 E5 E6 E9"/>
    </vehicle>
    <vehicle id="105" depart="105.00">
        <route edges="-E6 -E5 E3"/>
    </vehicle>
    <vehicle id="107" depart="107.00">
        <route edges="E8 E7 E9"/>
    </vehicle>
    <vehicle id="109" depart="109.00">
        <route edges="-E3 E5 E6 -E7"/>
    </vehicle>
    <vehicle id="110" depart="110.00">
        <route edges="E9 E10 E13 E14"/>
    </vehicle>
    <vehicle id="111" depart="111.00">
        <route edges="E12 E11 -E10 -E9 -E6 -E5 E2"/>
    </vehicle>
    <vehicle id="114" depart="114.00">
        <route edges="-E3 E5 E6 E9"/>
    </vehicle>
    <vehicle id="116" depart="116.00">
        <route edges="E13 E17"/>
    </vehicle>
    <vehicle id="118" depart="118.00">
        <route edges="E7 -E6"/>
    </vehicle>
    <vehicle id="120" depart="120.00">
        <route edges="E1 E5 E6 E9 E10 E13 E14"/>
    </vehicle>
    <vehicle id="124" depart="124.00">
        <route edges="E16 -E13 -E10 -E9 -E7"/>
    </vehicle>
    <vehicle id="127" depart="127.00">
        <route edges="E9"/>
    </vehicle>
    <vehicle id="134" depart="134.00">
        <route edges="E16 -E13 -E10"/>
    </vehicle>
    <vehicle id="135" depart="135.00">
        <route edges="E5 E6 -E7"/>
    </vehicle>
    <vehicle id="137" depart="137.00">
        <route edges="-E3 E5 E6 E9 E10 -E11 -E12"/>
    </vehicle>
    <vehicle id="140" depart="140.00">
        <route edges="E18 E19 -E13 -E10 -E9 -E6 -E5"/>
    </vehicle>
    <vehicle id="141" depart="141.00">
        <route edges="E15 E16 -E13 -E10 -E9 -E6"/>
    </vehicle>
    <vehicle id="143" depart="143.00">
        <route edges="E6 E9 E10 -E11 -E12"/>
    </vehicle>
    <vehicle id="145" depart="145.00">
        <route edges="-E10 -E9 -E6 -E5 E3"/>
    </vehicle>
    <vehicle id="146" depart="146.00">
        <route edges="E15 E16 -E13 -E10 -E9 -E6"/>
    </vehicle>
    <vehicle id="150" depart="150.00">
        <route edges="E7 E9 E10 E13"/>
    </vehicle>
    <vehicle id="151" depart="151.00">
        <route edges="E5 E6 E9 E10 E13 E14"/>
    </vehicle>
    <vehicle id="155" depart="155.00">
        <route edges="E7 -E6 -E5"/>
    </vehicle>
    <vehicle id="160" depart="160.00">
        <route edges="E6 E9"/>
    </vehicle>
    <vehicle id="161" depart="161.00">
        <route edges="E5 E6"/>
    </vehicle>
    <vehicle id="162" depart="162.00">
        <route edges="-E10 -E9 -E6 -E5 E2"/>
    </vehicle>
    <vehicle id="164" depart="164.00">
        <route edges="E5"/>
    </vehicle>
    <vehicle id="168" depart="168.00">
        <route edges="-E5 E3 E4"/>
    </vehicle>
    <vehicle id="174" depart="174.00">
        <route edges="E16 -E13 -E10 -E9"/>
    </vehicle>
    <vehicle id="175" depart="175.00">
        <route edges="E9 E10 E13"/>
    </vehicle>
    <vehicle id="176" depart="176.00">
        <route edges="E8 E7 E9 E10 -E11 -E12"/>
    </vehicle>
    <vehicle id="180" depart="180.00">
        <route edges="E19 -E13 -E10 -E9 -E7"/>
    </vehicle>
    <vehicle id="182" depart="182.00">
        <route edges="E0 E1 E5 E6 E9 E10 E13 E14"/>
    </vehicle>
    <vehicle id="187" depart="187.00">
        <route edges="E0 E1 E5 E6 E9 E10 -E11"/>
    </vehicle>
    <vehicle id="188" depart="188.00">
        <route edges="E16 -E13 -E10 -E9 -E7 -E8"/>
    </vehicle>
    <vehicle id="190" depart="190.00">
        <route edges="E18 E19 -E13 -E10 -E9 -E7"/>
    </vehicle>
    <vehicle id="192" depart="192.00">
        <route edges="E1 E5 E6 -E7"/>
    </vehicle>
    <vehicle id="194" depart="194.00">
        <route edges="E8 E7 E9 E10 E13 E17"/>
    </vehicle>
    <vehicle id="197" depart="197.00">
        <route edges="-E10 -E9 -E7"/>
    </vehicle>
    <vehicle id="198" depart="198.00">
        <route edges="E1 E5 E6 E9 E10 E13 E14"/>
    </vehicle>
    <vehicle id="204" depart="204.00">
        <route edges="E15 E16 -E13 -E10 -E9 -E7 -E8"/>
    </vehicle>
    <vehicle id="206" depart="206.00">
        <route edges="E16 -E13 -E10 -E9 -E6 -E5"/>
    </vehicle>
    <vehicle id="209" depart="209.00">
        <route edges="E6 E9 E10 -E11"/>
    </vehicle>
    <vehicle id="212" depart="212.00">
        <route edges="E11 -E10 -E9 -E6"/>
    </vehicle>
    <vehicle id="213" depart="213.00">
        <route edges="E16 -E13 -E10"/>
    </vehicle>
    <vehicle id="214" depart="214.00">
        <route edges="E19 -E13 -E10 -E9 -E6 -E5 E3"/>
    </vehicle>
    <vehicle id="224" depart="224.00">
        <route edges="E5 E6 E9 E10 E13"/>
    </vehicle>
    <vehicle id="225" depart="225.00">
        <route edges="E7 -E6 -E5 E2"/>
    </vehicle>
    <vehicle id="229" depart="229.00">
        <route edges="E15 E16 -E13 -E10 -E9 -E6"/>
    </vehicle>
    <vehicle id="234" depart="234.00">
        <route edges="E18 E19 -E13 -E11"/>
    </vehicle>
    <vehicle id="235" depart="235.00">
        <route edges="E1 E5 E6 E9 E10 E13"/>
    </vehicle>
    <vehicle id="237" depart="237.00">
        <route edges="E1 E5 E6"/>
    </vehicle>
    <vehicle id="241" depart="241.00">
        <route edges="-E9 -E6 -E5 E2"/>
    </vehicle>
    <vehicle id="245" depart="245.00">
        <route edges="-E5"/>
    </vehicle>
    <vehicle id="250" depart="250.00">
        <route edges="E15 E16 -E13 -E10"/>
    </vehicle>
    <vehicle id="251" depart="251.00">
        <route edges="E0 E1 E5 E6 E9 E10 E13 E14"/>
    </vehicle>
    <vehicle id="253" depart="253.00">
        <route edges="-E3 E5 E6 E9 E10"/>
    </vehicle>
    <vehicle id="257" depart="257.00">
        <route edges="E19 -E13 -E10 -E9 -E6 -E5 E3 E4"/>
    </vehicle>
    <vehicle id="261" depart="261.00">
        <route edges="E16 -E13 -E10 -E9 -E6 -E5 E3"/>
    </vehicle>
    <vehicle id="262" depart="262.00">
        <route edges="E16 -E13 -E10 -E9 -E6 -E5 E2"/>
    </vehicle>
    <vehicle id="265" depart="265.00">
        <route edges="-E3 E5 E6 E9 E10 E13 E17"/>
    </vehicle>
    <vehicle id="267" depart="267.00">
        <route edges="E18 E19 -E13 -E10 -E9 -E6 -E5 E3"/>
    </vehicle>
    <vehicle id="269" depart="269.00">
        <route edges="E19 -E13 -E11 -E12"/>
    </vehicle>
    <vehicle id="270" depart="270.00">
        <route edges="E5 E6 E9"/>
    </vehicle>
    <vehicle id="271" depart="271.00">
        <route edges="-E13 -E10"/>
    </vehicle>
    <vehicle id="274" depart="274.00">
        <route edges="E18 E19 -E13 -E11"/>
    </vehicle>
    <vehicle id="276" depart="276.00">
        <route edges="-E13 -E10 -E9 -E6 -E5 E3"/>
    </vehicle>
    <vehicle id="278" depart="278.00">
        <route edges="-E3 E5 E6 E9"/>
    </vehicle>
    <vehicle id="281" depart="281.00">
        <route edges="E11 -E10 -E9 -E7 -E8"/>
    </vehicle>
    <vehicle id="284" depart="284.00">
        <route edges="E15 E16 -E13 -E10 -E9 -E6 -E5 E3 E4"/>
    </vehicle>
    <vehicle id="287" depart="287.00">
        <route edges="-E6 -E5 E3 E4"/>
    </vehicle>
    <vehicle id="288" depart="288.00">
        <route edges="E12 E11"/>
    </vehicle>
    <vehicle id="291" depart="291.00">
        <route edges="E5 E6 E9 E10 -E11 -E12"/>
    </vehicle>
    <vehicle id="292" depart="292.00">
        <route edges="E7 -E6"/>
    </vehicle>
    <vehicle id="296" depart="296.00">
        <route edges="-E5 E3"/>
    </vehicle>
    <vehicle id="298" depart="298.00">
        <route edges="E18 E19 -E13 -E10 -E9 -E6"/>
    </vehicle>
    <vehicle id="300" depart="300.00">
        <route edges="-E13 -E10 -E9 -E6 -E5 E2"/>
    </vehicle>
    <vehicle id="301" depart="301.00">
        <route edges="E11 -E10 -E9 -E6 -E5 E2"/>
    </vehicle>
    <vehicle id="303" depart="303.00">
        <route edges="E11 -E10 -E9 -E6 -E5 E3"/>
    </vehicle>
    <vehicle id="304" depart="304.00">
        <route edges="-E13 -E10 -E9 -E6 -E5"/>
    </vehicle>
    <vehicle id="305" depart="305.00">
        <route edges="E18 E19 -E13 -E10 -E9 -E7"/>
    </vehicle>
    <vehicle id="308" depart="308.00">
        <route edges="E19 -E13 -E10 -E9 -E7 -E8"/>
    </vehicle>
    <vehicle id="309" depart="309.00">
        <route edges="E18 E19 -E13 -E10 -E9 -E6"/>
    </vehicle>
    <vehicle id="311" depart="311.00">
        <route edges="-E4 -E3 E5 E6 E9 E10 -E11 -E12"/>
    </vehicle>
    <vehicle id="312" depart="312.00">
        <route edges="E12 E11 -E10 -E9 -E6 -E5 E3"/>
    </vehicle>
    <vehicle id="314" depart="314.00">
        <route edges="E11 -E10 -E9 -E6 -E5 E2"/>
    </vehicle>
    <vehicle id="315" depart="315.00">
        <route edges="E9 E10 E13"/>
    </vehicle>
    <vehicle id="319" depart="319.00">
        <route edges="E12 E11 -E10 -E9 -E6"/>
    </vehicle>
    <vehicle id="320" depart="320.00">
        <route edges="E9 E10 E13"/>
    </vehicle>
    <vehicle id="321" depart="321.00">
        <route edges="E18 E19 -E13"/>
    </vehicle>
    <vehicle id="323" depart="323.00">
        <route edges="E6 E9 E10 E13 E14"/>
    </vehicle>
    <vehicle id="324" depart="324.00">
        <route edges="E10"/>
    </vehicle>
    <vehicle id="325" depart="325.00">
        <route edges="-E4 -E3 E5 E6 E9 E10 -E11"/>
    </vehicle>
    <vehicle id="326" depart="326.00">
        <route edges="E8 E7 E9 E10"/>
    </vehicle>
    <vehicle id="331" depart="331.00">
        <route edges="E9 E10 -E11 -E12"/>
    </vehicle>
    <vehicle id="337" depart="337.00">
        <route edges="E15 E16"/>
    </vehicle>
    <vehicle id="339" depart="339.00">
        <route edges="-E5"/>
    </vehicle>
    <vehicle id="340" depart="340.00">
        <route edges="E16 -E13"/>
    </vehicle>
    <vehicle id="341" depart="341.00">
        <route edges="-E4 -E3 E5 E6 E9 E10 -E11"/>
    </vehicle>
    <vehicle id="349" depart="349.00">
        <route edges="E1 E5 E6 E9 E10 E13"/>
    </vehicle>
    <vehicle id="351" depart="351.00">
        <route edges="E5 E6 E9 E10 -E11"/>
    </vehicle>
    <vehicle id="352" depart="352.00">
        <route edges="-E4 -E3 E5 E6 -E7"/>
    </vehicle>
    <vehicle id="353" depart="353.00">
        <route edges="E19 E14"/>
    </vehicle>
    <vehicle id="355" depart="355.00">
        <route edges="E18 E19"/>
    </vehicle>
    <vehicle id="359" depart="359.00">
        <route edges="-E9 -E6"/>
    </vehicle>
    <vehicle id="361" depart="361.00">
        <route edges="E5 E6 E9 E10 E13 E14"/>
    </vehicle>
    <vehicle id="362" depart="362.00">
        <route edges="E8 E7 E9"/>
    </vehicle>
    <vehicle id="363" depart="363.00">
        <route edges="E16 -E13 -E10 -E9 -E6"/>
    </vehicle>
    <vehicle id="365" depart="365.00">
        <route edges="E10 E13 E17"/>
    </vehicle>
    <vehicle id="369" depart="369.00">
        <route edges="-E9 -E7 -E8"/>
    </vehicle>
    <vehicle id="373" depart="373.00">
        <route edges="E5 E6 E9 E10 E13"/>
    </vehicle>
    <vehicle id="377" depart="377.00">
        <route edges="E9 E10 E13 E17"/>
    </vehicle>
    <vehicle id="381" depart="381.00">
        <route edges="E19 -E13 -E10 -E9 -E6 -E5"/>
    </vehicle>
    <vehicle id="384" depart="384.00">
        <route edges="-E3 E5 E6 E9"/>
    </vehicle>
    <vehicle id="385" depart="385.00">
        <route edges="E15 E16 -E13 -E10 -E9 -E6 -E5"/>
    </vehicle>
    <vehicle id="386" depart="386.00">
        <route edges="-E3 E5 E6 E9 E10 E13"/>
    </vehicle>
    <vehicle id="389" depart="389.00">
        <route edges="E10 -E11 -E12"/>
    </vehicle>
    <vehicle id="392" depart="392.00">
        <route edges="-E6 -E5 E3 E4"/>
    </vehicle>
    <vehicle id="394" depart="394.00">
        <route edges="E12 E11 -E10 -E9"/>
    </vehicle>
    <vehicle id="397" depart="397.00">
        <route edges="-E6 -E5 E3"/>
    </vehicle>
    <vehicle id="399" depart="399.00">
        <route edges="E11 -E10 -E9 -E6 -E5 E3 E4"/>
    </vehicle>
    <vehicle id="400" depart="400.00">
        <route edges="-E7"/>
    </vehicle>
    <vehicle id="403" depart="403.00">
        <route edges="E12 E11 -E10 -E9 -E7 -E8"/>
    </vehicle>
    <vehicle id="404" depart="404.00">
        <route edges="E12 E11 E13"/>
    </vehicle>
    <vehicle id="409" depart="409.00">
        <route edges="E19"/>
    </vehicle>
    <vehicle id="411" depart="411.00">
        <route edges="E16 -E13 -E10 -E9 -E6 -E5 E3 E4"/>
    </vehicle>
    <vehicle id="415" depart="415.00">
        <route edges="E6 E9 E10"/>
    </vehicle>
    <vehicle id="418" depart="418.00">
        <route edges="E16 -E13"/>
    </vehicle>
    <vehicle id="423" depart="423.00">
        <route edges="E0 E1 E5 E6 -E7"/>
    </vehicle>
    <vehicle id="424" depart="424.00">
        <route edges="E18 E19 -E13 -E10 -E9 -E6 -E5 E2"/>
    </vehicle>
    <vehicle id="427" depart="427.00">
        <route edges="E8 E7 E9"/>
    </vehicle>
    <vehicle id="430" depart="430.00">
        <route edges="E6 E9 E10"/>
    </vehicle>
    <vehicle id="434" depart="434.00">
        <route edges="-E3 E5 E6 E9 E10 E13"/>
    </vehicle>
    <vehicle id="436" depart="436.00">
        <route edges="-E4 -E3 E5 E6 E9 E10 -E11"/>
    </vehicle>
    <vehicle id="439" depart="439.00">
        <route edges="-E3 E5 E6 E9 E10"/>
    </vehicle>
    <vehicle id="440" depart="440.00">
        <route edges="-E6"/>
    </vehicle>
    <vehicle id="441" depart="441.00">
        <route edges="-E10 -E9 -E6 -E5 E3 E4"/>
    </vehicle>
    <vehicle id="442" depart="442.00">
        <route edges="E7 E9 E10 E13 E17"/>
    </vehicle>
    <vehicle id="443" depart="443.00">
        <route edges="-E3 E5 E6 E9 E10"/>
    </vehicle>
    <vehicle id="448" depart="448.00">
        <route edges="E11 -E10 -E9 -E6 -E5"/>
    </vehicle>
    <vehicle id="449" depart="449.00">
        <route edges="E13 E14"/>
    </vehicle>
    <vehicle id="451" depart="451.00">
        <route edges="E9 E10 E13 E17"/>
    </vehicle>
    <vehicle id="453" depart="453.00">
        <route edges="E18 E19 -E13 -E10 -E9 -E6 -E5 E2"/>
    </vehicle>
    <vehicle id="457" depart="457.00">
        <route edges="E15 E16 -E13 -E10 -E9 -E7 -E8"/>
    </vehicle>
    <vehicle id="458" depart="458.00">
        <route edges="E15 E16"/>
    </vehicle>
    <vehicle id="459" depart="459.00">
        <route edges="E16 -E13 -E10 -E9 -E6 -E5 E2"/>
    </vehicle>
    <vehicle id="460" depart="460.00">
        <route edges="E16 -E13 -E10 -E9 -E6 -E5 E3 E4"/>
    </vehicle>
    <vehicle id="462" depart="462.00">
        <route edges="E16 -E13 -E10 -E9 -E7"/>
    </vehicle>
    <vehicle id="463" depart="463.00">
        <route edges="E10 E13 E14"/>
    </vehicle>
    <vehicle id="464" depart="464.00">
        <route edges="E19 -E13 -E11 -E12"/>
    </vehicle>
    <vehicle id="477" depart="477.00">
        <route edges="E0 E1 E3"/>
    </vehicle>
    <vehicle id="479" depart="479.00">
        <route edges="E10 E13 E17"/>
    </vehicle>
    <vehicle id="482" depart="482.00">
        <route edges="-E13 -E10 -E9 -E6 -E5"/>
    </vehicle>
    <vehicle id="486" depart="486.00">
        <route edges="E5 E6"/>
    </vehicle>
    <vehicle id="491" depart="491.00">
        <route edges="-E3 E5 E6 E9 E10"/>
    </vehicle>
    <vehicle id="492" depart="492.00">
        <route edges="E16 -E13 -E10 -E9 -E6 -E5 E2"/>
    </vehicle>
    <vehicle id="494" depart="494.00">
        <route edges="E19 -E13"/>
    </vehicle>
    <vehicle id="495" depart="495.00">
        <route edges="E1 E5 E6 E9 E10 -E11 -E12"/>
    </vehicle>
    <vehicle id="498" depart="498.00">
        <route edges="E0 E1 E5 E6 E9 E10"/>
    </vehicle>
    <vehicle id="502" depart="502.00">
        <route edges="-E9"/>
    </vehicle>
    <vehicle id="504" depart="504.00">
        <route edges="E6 E9 E10"/>
    </vehicle>
    <vehicle id="505" depart="505.00">
        <route edges="E16 E17"/>
    </vehicle>
    <vehicle id="508" depart="508.00">
        <route edges="-E3 E5 E6 E9 E10 E13 E14"/>
    </vehicle>
    <vehicle id="510" depart="510.00">
        <route edges="-E5"/>
    </vehicle>
    <vehicle id="511" depart="511.00">
        <route edges="E6 -E7 -E8"/>
    </vehicle>
    <vehicle id="512" depart="512.00">
        <route edges="-E3 E5 E6"/>
    </vehicle>
    <vehicle id="516" depart="516.00">
        <route edges="E16 -E13 -E10"/>
    </vehicle>
    <vehicle id="517" depart="517.00">
        <route edges="-E10 -E9 -E6 -E5 E3"/>
    </vehicle>
    <vehicle id="519" depart="519.00">
        <route edges="-E4 -E3 E5 E6 E9 E10 -E11"/>
    </vehicle>
    <vehicle id="524" depart="524.00">
        <route edges="E8 E7 E9 E10 -E11"/>
    </vehicle>
    <vehicle id="527" depart="527.00">
        <route edges="E9 E10 -E11"/>
    </vehicle>
    <vehicle id="530" depart="530.00">
        <route edges="E7 E9 E10 -E11"/>
    </vehicle>
    <vehicle id="536" depart="536.00">
        <route edges="E15 E16 -E13 -E11 -E12"/>
    </vehicle>
    <vehicle id="538" depart="538.00">
        <route edges="E16 -E13 -E10 -E9 -E6 -E5 E3"/>
    </vehicle>
    <vehicle id="539" depart="539.00">
        <route edges="E19 -E13 -E10 -E9 -E6 -E5"/>
    </vehicle>
    <vehicle id="542" depart="542.00">
        <route edges="E1 E5 E6 E9 E10 -E11 -E12"/>
    </vehicle>
    <vehicle id="543" depart="543.00">
        <route edges="E1 E5 E6 E9 E10 E13 E17"/>
    </vehicle>
    <vehicle id="545" depart="545.00">
        <route edges="E8 E7 E9 E10 -E11"/>
    </vehicle>
    <vehicle id="546" depart="546.00">
        <route edges="E5 E6 E9 E10 -E11 -E12"/>
    </vehicle>
    <vehicle id="547" depart="547.00">
        <route edges="-E13 -E10 -E9 -E6 -E5 E2"/>
    </vehicle>
    <vehicle id="548" depart="548.00">
        <route edges="E5 E6 E9 E10 E13"/>
    </vehicle>
    <vehicle id="549" depart="549.00">
        <route edges="E13 E14"/>
    </vehicle>
    <vehicle id="554" depart="554.00">
        <route edges="E15 E16 -E13 -E10 -E9 -E7 -E8"/>
    </vehicle>
    <vehicle id="556" depart="556.00">
        <route edges="E16 -E13 -E10 -E9 -E6 -E5"/>
    </vehicle>
    <vehicle id="558" depart="558.00">
        <route edges="E0 E1 E3"/>
    </vehicle>
    <vehicle id="560" depart="560.00">
        <route edges="E6 E9"/>
    </vehicle>
    <vehicle id="562" depart="562.00">
        <route edges="E16 -E13 -E10"/>
    </vehicle>
    <vehicle id="563" depart="563.00">
        <route edges="E8 E7 -E6 -E5 E3 E4"/>
    </vehicle>
    <vehicle id="565" depart="565.00">
        <route edges="E18 E19 -E13 -E10 -E9 -E7"/>
    </vehicle>
    <vehicle id="567" depart="567.00">
        <route edges="E6 E9 E10 E13 E14"/>
    </vehicle>
    <vehicle id="569" depart="569.00">
        <route edges="E15 E16 -E13 -E10"/>
    </vehicle>
    <vehicle id="570" depart="570.00">
        <route edges="E19 -E13 -E10 -E9 -E6 -E5"/>
    </vehicle>
    <vehicle id="571" depart="571.00">
        <route edges="E1 E5 E6 -E7 -E8"/>
    </vehicle>
    <vehicle id="574" depart="574.00">
        <route edges="-E13 -E11"/>
    </vehicle>
    <vehicle id="576" depart="576.00">
        <route edges="E16 -E13 -E10 -E9 -E6"/>
    </vehicle>
    <vehicle id="579" depart="579.00">
        <route edges="E19 -E13 -E11 -E12"/>
    </vehicle>
    <vehicle id="580" depart="580.00">
        <route edges="E1 E5 E6 -E7"/>
    </vehicle>
    <vehicle id="582" depart="582.00">
        <route edges="E16 -E13 -E11"/>
    </vehicle>
    <vehicle id="583" depart="583.00">
        <route edges="E0 E1 E5 E6 E9 E10 E13 E14"/>
    </vehicle>
    <vehicle id="584" depart="584.00">
        <route edges="-E10 -E9 -E7"/>
    </vehicle>
    <vehicle id="587" depart="587.00">
        <route edges="-E10 -E9 -E6 -E5 E2"/>
    </vehicle>
    <vehicle id="594" depart="594.00">
        <route edges="E13 E14"/>
    </vehicle>
    <vehicle id="596" depart="596.00">
        <route edges="-E13 -E10"/>
    </vehicle>
    <vehicle id="597" depart="597.00">
        <route edges="-E9 -E6 -E5 E3 E4"/>
    </vehicle>
    <vehicle id="598" depart="598.00">
        <route edges="E15 E16 -E13 -E10 -E9 -E6 -E5 E3 E4"/>
    </vehicle>
    <vehicle id="599" depart="599.00">
        <route edges="E7 E9 E10 -E11 -E12"/>
    </vehicle>
    <vehicle id="601" depart="601.00">
        <route edges="E13"/>
    </vehicle>
    <vehicle id="602" depart="602.00">
        <route edges="E0 E1 E5 E6 -E7"/>
    </vehicle>
    <vehicle id="603" depart="603.00">
        <route edges="-E9 -E7 -E8"/>
    </vehicle>
    <vehicle id="607" depart="607.00">
        <route edges="E19 -E13 -E10 -E9 -E6 -E5 E3 E4"/>
    </vehicle>
    <vehicle id="609" depart="609.00">
        <route edges="-E3"/>
    </vehicle>
    <vehicle id="610" depart="610.00">
        <route edges="E15 E16 -E13 -E10 -E9 -E6 -E5 E3"/>
    </vehicle>
    <vehicle id="613" depart="613.00">
        <route edges="E19 -E13 -E10 -E9 -E6 -E5 E2"/>
    </vehicle>
    <vehicle id="617" depart="617.00">
        <route edges="E15 E16 -E13"/>
    </vehicle>
    <vehicle id="626" depart="626.00">
        <route edges="E12 E11 -E10 -E9 -E6 -E5 E3"/>
    </vehicle>
    <vehicle id="627" depart="627.00">
        <route edges="E7 E9 E10"/>
    </vehicle>
    <vehicle id="628" depart="628.00">
        <route edges="E5 E6 E9 E10 E13 E17"/>
    </vehicle>
    <vehicle id="630" depart="630.00">
        <route edges="-E3 E5 E6 E9 E10 -E11"/>
    </vehicle>
    <vehicle id="635" depart="635.00">
        <route edges="E1 E5 E6 E9 E10 E13"/>
    </vehicle>
    <vehicle id="640" depart="640.00">
        <route edges="-E11 -E12"/>
    </vehicle>
    <vehicle id="641" depart="641.00">
        <route edges="E16 -E13 -E10 -E9 -E7"/>
    </vehicle>
    <vehicle id="645" depart="645.00">
        <route edges="-E3 E5 E6 -E7 -E8"/>
    </vehicle>
    <vehicle id="647" depart="647.00">
        <route edges="E0 E1 E5 E6 E9 E10 E13 E14"/>
    </vehicle>
    <vehicle id="649" depart="649.00">
        <route edges="E0 E1 E3"/>
    </vehicle>
    <vehicle id="650" depart="650.00">
        <route edges="E5 E6 E9 E10 E13 E17"/>
    </vehicle>
    <vehicle id="659" depart="659.00">
        <route edges="-E13 -E10 -E9 -E6 -E5 E3"/>
    </vehicle>
    <vehicle id="660" depart="660.00">
        <route edges="E5 E6"/>
    </vehicle>
    <vehicle id="661" depart="661.00">
        <route edges="-E10 -E9 -E7 -E8"/>
    </vehicle>
    <vehicle id="666" depart="666.00">
        <route edges="E1"/>
    </vehicle>
    <vehicle id="667" depart="667.00">
        <route edges="E16 -E13 -E10 -E9 -E6 -E5"/>
    </vehicle>
    <vehicle id="670" depart="670.00">
        <route edges="E12 E11 -E10 -E9 -E7"/>
    </vehicle>
    <vehicle id="671" depart="671.00">
        <route edges="E5 E6 E9 E10"/>
    </vehicle>
    <vehicle id="673" depart="673.00">
        <route edges="E8 E7 E9"/>
    </vehicle>
    <vehicle id="675" depart="675.00">
        <route edges="E0 E1 E5 E6 E9 E10 E13"/>
    </vehicle>
    <vehicle id="679" depart="679.00">
        <route edges="E6 E9 E10 E13"/>
    </vehicle>
    <vehicle id="681" depart="681.00">
        <route edges="E6 -E7"/>
    </vehicle>
    <vehicle id="690" depart="690.00">
        <route edges="E8 E7 -E6 -E5 E3 E4"/>
    </vehicle>
    <vehicle id="691" depart="691.00">
        <route edges="E16 -E13 -E10 -E9 -E6 -E5 E3"/>
    </vehicle>
    <vehicle id="692" depart="692.00">
        <route edges="-E3 E5 E6 -E7"/>
    </vehicle>
    <vehicle id="697" depart="697.00">
        <route edges="E5 E6 E9 E10 E13"/>
    </vehicle>
    <vehicle id="699" depart="699.00">
        <route edges="-E13 -E10 -E9 -E7"/>
    </vehicle>
    <vehicle id="701" depart="701.00">
        <route edges="E1 E3"/>
    </vehicle>
    <vehicle id="702" depart="702.00">
        <route edges="E10 -E11 -E12"/>
    </vehicle>
    <vehicle id="703" depart="703.00">
        <route edges="E7 E9 E10 E13 E14"/>
    </vehicle>
    <vehicle id="708" depart="708.00">
        <route edges="E16 -E13 -E11 -E12"/>
    </vehicle>
    <vehicle id="709" depart="709.00">
        <route edges="E9 E10 -E11"/>
    </vehicle>
    <vehicle id="710" depart="710.00">
        <route edges="E12 E11"/>
    </vehicle>
    <vehicle id="711" depart="711.00">
        <route edges="E9 E10 E13"/>
    </vehicle>
    <vehicle id="712" depart="712.00">
        <route edges="E0 E1 E5 E6 E9 E10"/>
    </vehicle>
    <vehicle id="719" depart="719.00">
        <route edges="E12 E11 -E10 -E9 -E6 -E5 E3 E4"/>
    </vehicle>
    <vehicle id="722" depart="722.00">
        <route edges="E15 E16 -E13 -E10 -E9 -E6 -E5 E3 E4"/>
    </vehicle>
    <vehicle id="728" depart="728.00">
        <route edges="E12 E11 -E10 -E9 -E6"/>
    </vehicle>
    <vehicle id="730" depart="730.00">
        <route edges="-E9 -E6 -E5 E3"/>
    </vehicle>
    <vehicle id="731" depart="731.00">
        <route edges="E6 -E7 -E8"/>
    </vehicle>
    <vehicle id="733" depart="733.00">
        <route edges="E7 -E6 -E5 E2"/>
    </vehicle>
    <vehicle id="737" depart="737.00">
        <route edges="E11 -E10 -E9 -E6 -E5 E3 E4"/>
    </vehicle>
    <vehicle id="738" depart="738.00">
        <route edges="E19 -E13 -E11"/>
    </vehicle>
    <vehicle id="739" depart="739.00">
        <route edges="E15 E16 -E13 -E10 -E9 -E6 -E5 E3 E4"/>
    </vehicle>
    <vehicle id="740" depart="740.00">
        <route edges="E12 E11 -E10 -E9 -E7 -E8"/>
    </vehicle>
    <vehicle id="745" depart="745.00">
        <route edges="E6 -E7 -E8"/>
    </vehicle>
    <vehicle id="749" depart="749.00">
        <route edges="E0 E1 E3 E4"/>
    </vehicle>
    <vehicle id="757" depart="757.00">
        <route edges="E0 E1 E3"/>
    </vehicle>
    <vehicle id="758" depart="758.00">
        <route edges="E13"/>
    </vehicle>
    <vehicle id="759" depart="759.00">
        <route edges="E0 E1 E5 E6 E9 E10 E13 E17"/>
    </vehicle>
    <vehicle id="762" depart="762.00">
        <route edges="E0 E1 E5 E6 E9 E10 E13 E14"/>
    </vehicle>
    <vehicle id="763" depart="763.00">
        <route edges="-E6"/>
    </vehicle>
    <vehicle id="767" depart="767.00">
        <route edges="E6 E9 E10"/>
    </vehicle>
    <vehicle id="768" depart="768.00">
        <route edges="E7 E9 E10"/>
    </vehicle>
    <vehicle id="770" depart="770.00">
        <route edges="E6 -E7"/>
    </vehicle>
    <vehicle id="779" depart="779.00">
        <route edges="E0 E1 E3 E4"/>
    </vehicle>
    <vehicle id="781" depart="781.00">
        <route edges="-E13 -E10 -E9 -E7"/>
    </vehicle>
    <vehicle id="783" depart="783.00">
        <route edges="E12 E11 -E10 -E9 -E6 -E5 E3"/>
    </vehicle>