<?xml version="1.0" encoding="UTF-8"?>

<!-- generated on 2024-05-27 17:12:43 by Eclipse SUMO netedit Version 1.19.0
<configuration xmlns:xsi="http://www.w3.org/2001/XMLSchema-instance" xsi:noNamespaceSchemaLocation="http://sumo.dlr.de/xsd/neteditConfiguration.xsd">

    <input>
        <route-files value="C:\Users\sioldead\OneDrive - McMaster University\Research\Python\NN\Data\Test5\rymal-upperRedHill.rou.xml"/>
        <sumo-net-file value="C:\Users\sioldead\OneDrive - McMaster University\Research\Python\NN\Data\Test5\rymal-upperRedHill.net.xml"/>
    </input>

    <output>
        <output-file value="C:\Users\sioldead\OneDrive - McMaster University\Research\Python\NN\Data\Test5\rymal-upperRedHill.net.xml"/>
    </output>

    <processing>
        <geometry.min-radius.fix.railways value="false"/>
        <geometry.max-grade.fix value="false"/>
        <offset.disable-normalization value="true"/>
        <lefthand value="0"/>
    </processing>

    <junctions>
        <no-turnarounds value="true"/>
        <junctions.corner-detail value="5"/>
        <junctions.limit-turn-speed value="5.50"/>
        <rectangular-lane-cut value="0"/>
    </junctions>

    <pedestrian>
        <walkingareas value="0"/>
    </pedestrian>

</configuration>
-->

<net version="1.16" junctionCornerDetail="5" limitTurnSpeed="5.50" xmlns:xsi="http://www.w3.org/2001/XMLSchema-instance" xsi:noNamespaceSchemaLocation="http://sumo.dlr.de/xsd/net_file.xsd">

    <location netOffset="0.00,0.00" convBoundary="-200.00,-592.05,1459.17,500.00" origBoundary="-10000000000.00,-10000000000.00,10000000000.00,10000000000.00" projParameter="!"/>

    <edge id=":J1_0" function="internal">
        <lane id=":J1_0_0" index="0" speed="13.89" length="8.54" shape="-104.00,-4.80 -101.54,-5.30 -100.00,-6.40 -98.46,-7.50 -96.00,-8.00"/>
        <lane id=":J1_0_1" index="1" speed="13.89" length="8.54" shape="-104.00,-1.60 -101.54,-2.10 -100.00,-3.20 -98.46,-4.30 -96.00,-4.80"/>
        <lane id=":J1_0_2" index="2" speed="13.89" length="8.54" shape="-104.00,-1.60 -96.00,-1.60"/>
    </edge>
    <edge id=":J10_0" function="internal">
        <lane id=":J10_0_0" index="0" speed="6.64" length="9.37" shape="769.01,-241.89 767.59,-244.13 765.85,-245.41 763.79,-245.72 761.40,-245.06"/>
    </edge>
    <edge id=":J10_1" function="internal">
        <lane id=":J10_1_0" index="0" speed="10.30" length="25.03" shape="771.91,-243.23 769.95,-249.84 770.62,-255.42 773.94,-259.94 779.90,-263.43"/>
        <lane id=":J10_1_1" index="1" speed="9.19" length="19.70" shape="774.82,-244.57 773.27,-249.77 773.80,-254.16 776.41,-257.72 781.10,-260.46"/>
    </edge>
    <edge id=":J10_3" function="internal">
        <lane id=":J10_3_0" index="0" speed="6.41" length="9.04" shape="783.51,-254.54 781.36,-253.28 780.17,-251.64 779.92,-249.63 780.63,-247.24"/>
    </edge>
    <edge id=":J10_4" function="internal">
        <lane id=":J10_4_0" index="0" speed="13.89" length="24.11" shape="783.51,-254.54 761.40,-245.06"/>
        <lane id=":J10_4_1" index="1" speed="13.89" length="24.11" shape="782.31,-257.50 760.10,-247.99"/>
    </edge>
    <edge id=":J10_6" function="internal">
        <lane id=":J10_6_0" index="0" speed="13.89" length="24.63" shape="756.19,-256.76 763.34,-259.38 768.79,-260.56 773.87,-261.50 779.90,-263.43"/>
        <lane id=":J10_6_1" index="1" speed="13.89" length="24.63" shape="757.50,-253.83 764.61,-256.44 770.03,-257.61 775.08,-258.54 781.10,-260.46"/>
    </edge>
    <edge id=":J10_8" function="internal">
        <lane id=":J10_8_0" index="0" speed="9.93" length="6.66" shape="758.80,-250.91 765.15,-252.90"/>
    </edge>
    <edge id=":J10_9" function="internal">
        <lane id=":J10_9_0" index="0" speed="9.93" length="15.54" shape="765.15,-252.90 770.43,-252.73 774.62,-250.40 777.73,-245.91"/>
    </edge>
    <edge id=":J11_0" function="internal">
        <lane id=":J11_0_0" index="0" speed="13.89" length="9.19" shape="862.92,-35.66 862.40,-38.08 861.96,-39.72 861.35,-41.31 860.33,-43.56"/>
        <lane id=":J11_0_1" index="1" speed="13.89" length="9.19" shape="866.05,-36.30 865.50,-38.94 865.01,-40.72 864.35,-42.45 863.23,-44.90"/>
        <lane id=":J11_0_2" index="2" speed="13.89" length="9.19" shape="866.05,-36.30 865.94,-39.27 866.50,-41.40 866.86,-43.47 866.14,-46.24"/>
    </edge>
    <edge id=":J11_3" function="internal">
        <lane id=":J11_3_0" index="0" speed="13.89" length="11.18" shape="871.95,-48.92 872.85,-45.75 872.60,-43.40 872.12,-40.97 872.32,-37.58"/>
        <lane id=":J11_3_1" index="1" speed="13.89" length="11.18" shape="869.05,-47.58 869.86,-44.61 869.55,-42.40 869.03,-40.12 869.19,-36.94"/>
    </edge>
    <edge id=":J13_0" function="internal">
        <lane id=":J13_0_0" index="0" speed="13.89" length="22.63" shape="922.77,-304.18 916.08,-304.38 911.29,-304.65 906.81,-304.23 901.04,-302.37"/>
        <lane id=":J13_0_1" index="1" speed="13.89" length="22.63" shape="922.72,-307.38 915.60,-307.54 910.44,-307.73 905.70,-307.23 899.83,-305.34"/>
    </edge>
    <edge id=":J13_2" function="internal">
        <lane id=":J13_2_0" index="0" speed="9.25" length="4.00" shape="922.67,-310.58 918.70,-311.10"/>
    </edge>
    <edge id=":J13_9" function="internal">
        <lane id=":J13_9_0" index="0" speed="9.25" length="15.50" shape="918.70,-311.10 917.36,-311.28 913.57,-313.52 911.30,-317.28 910.55,-322.58"/>
    </edge>
    <edge id=":J13_3" function="internal">
        <lane id=":J13_3_0" index="0" speed="6.47" length="9.03" shape="916.97,-322.57 917.32,-320.11 918.36,-318.37 920.12,-317.34 922.58,-317.02"/>
    </edge>
    <edge id=":J13_4" function="internal">
        <lane id=":J13_4_0" index="0" speed="12.98" length="27.39" shape="916.97,-322.57 915.96,-316.16 912.96,-310.65 907.99,-306.06 901.04,-302.37"/>
        <lane id=":J13_4_1" index="1" speed="12.07" length="23.59" shape="913.77,-322.57 912.88,-317.15 910.26,-312.47 905.92,-308.54 899.83,-305.34"/>
    </edge>
    <edge id=":J13_6" function="internal">
        <lane id=":J13_6_0" index="0" speed="10.62" length="18.15" shape="897.42,-311.27 903.16,-313.97 907.26,-316.76 909.72,-319.63 910.55,-322.58"/>
    </edge>
    <edge id=":J13_7" function="internal">
        <lane id=":J13_7_0" index="0" speed="13.89" length="25.40" shape="897.42,-311.27 903.85,-313.74 909.72,-315.50 915.73,-316.59 922.58,-317.02"/>
        <lane id=":J13_7_1" index="1" speed="13.89" length="25.40" shape="898.63,-308.30 904.88,-310.73 910.35,-312.42 915.96,-313.43 922.63,-313.82"/>
    </edge>
    <edge id=":J16_0" function="internal">
        <lane id=":J16_0_0" index="0" speed="13.89" length="8.40" shape="914.15,-417.90 914.65,-415.44 915.75,-413.90 916.84,-412.36 917.33,-409.89"/>
        <lane id=":J16_0_1" index="1" speed="13.89" length="8.40" shape="914.15,-417.90 914.13,-409.91"/>
    </edge>
    <edge id=":J18_0" function="internal">
        <lane id=":J18_0_0" index="0" speed="13.89" length="8.53" shape="1118.64,-309.41 1116.19,-308.87 1114.66,-307.74 1113.13,-306.62 1110.67,-306.10"/>
        <lane id=":J18_0_1" index="1" speed="13.89" length="8.53" shape="1118.59,-312.61 1116.14,-312.07 1114.62,-310.94 1113.09,-309.82 1110.64,-309.30"/>
        <lane id=":J18_0_2" index="2" speed="13.89" length="8.53" shape="1118.59,-312.61 1110.61,-312.50"/>
    </edge>
    <edge id=":J2_0" function="internal">
        <lane id=":J2_0_0" index="0" speed="13.89" length="21.12" shape="10.40,8.00 4.12,7.50 -0.20,6.40 -4.41,5.30 -10.40,4.80"/>
        <lane id=":J2_0_1" index="1" speed="13.89" length="21.12" shape="10.40,4.80 4.12,4.30 -0.20,3.20 -4.41,2.10 -10.40,1.60"/>
    </edge>
    <edge id=":J2_2" function="internal">
        <lane id=":J2_2_0" index="0" speed="9.84" length="4.01" shape="10.40,1.60 6.45,0.89"/>
    </edge>
    <edge id=":J2_8" function="internal">
        <lane id=":J2_8_0" index="0" speed="9.84" length="17.98" shape="6.45,0.89 5.15,0.65 1.40,-2.20 -0.85,-6.95 -1.60,-13.60"/>
    </edge>
    <edge id=":J2_3" function="internal">
        <lane id=":J2_3_0" index="0" speed="7.33" length="11.73" shape="4.80,-13.60 5.15,-9.75 6.20,-7.00 7.95,-5.35 10.40,-4.80"/>
    </edge>
    <edge id=":J2_4" function="internal">
        <lane id=":J2_4_0" index="0" speed="9.84" length="21.99" shape="1.60,-13.60 0.85,-6.95 -1.40,-2.20 -5.15,0.65 -10.40,1.60"/>
    </edge>
    <edge id=":J2_5" function="internal">
        <lane id=":J2_5_0" index="0" speed="6.51" length="9.03" shape="-10.40,-8.00 -7.95,-8.35 -6.20,-9.40 -5.15,-11.15 -4.80,-13.60"/>
    </edge>
    <edge id=":J2_6" function="internal">
        <lane id=":J2_6_0" index="0" speed="13.89" length="20.80" shape="-10.40,-4.80 10.40,-4.80"/>
        <lane id=":J2_6_1" index="1" speed="13.89" length="20.80" shape="-10.40,-1.60 10.40,-1.60"/>
    </edge>
    <edge id=":J3_0" function="internal">
        <lane id=":J3_0_0" index="0" speed="13.89" length="8.81" shape="-4.80,-96.00 -4.30,-98.46 -3.20,-100.00 -2.10,-101.54 -1.60,-104.00"/>
    </edge>
    <edge id=":J3_1" function="internal">
        <lane id=":J3_1_0" index="0" speed="13.89" length="8.40" shape="1.60,-104.00 2.10,-101.54 3.20,-100.00 4.30,-98.46 4.80,-96.00"/>
        <lane id=":J3_1_1" index="1" speed="13.89" length="8.40" shape="1.60,-104.00 1.60,-96.00"/>
    </edge>
    <edge id=":J5_0" function="internal">
        <lane id=":J5_0_0" index="0" speed="13.89" length="11.94" shape="97.19,6.00 93.64,7.14 91.14,7.74 88.58,7.97 84.84,8.00"/>
        <lane id=":J5_0_1" index="1" speed="13.89" length="11.94" shape="96.18,2.96 92.92,4.01 90.62,4.56 88.27,4.77 84.84,4.80"/>
        <lane id=":J5_0_2" index="2" speed="13.89" length="11.94" shape="96.18,2.96 92.93,3.51 90.62,2.96 88.26,2.07 84.84,1.60"/>
    </edge>
    <edge id=":J5_3" function="internal">
        <lane id=":J5_3_0" index="0" speed="13.89" length="9.55" shape="84.84,-4.80 87.35,-4.82 89.07,-4.97 90.75,-5.38 93.14,-6.15"/>
        <lane id=":J5_3_1" index="1" speed="13.89" length="9.55" shape="84.84,-1.60 87.66,-1.63 89.59,-1.80 91.48,-2.25 94.15,-3.11"/>
        <lane id=":J5_3_2" index="2" speed="13.89" length="9.55" shape="84.84,-1.60 87.96,-1.13 90.10,-0.22 92.20,0.38 95.17,-0.08"/>
    </edge>
    <edge id=":J6_0" function="internal">
        <lane id=":J6_0_0" index="0" speed="7.04" length="9.59" shape="403.35,-89.73 401.84,-92.00 400.04,-93.37 397.93,-93.85 395.52,-93.45"/>
    </edge>
    <edge id=":J6_1" function="internal">
        <lane id=":J6_1_0" index="0" speed="8.54" length="17.32" shape="403.35,-89.73 401.47,-94.81 401.38,-98.94 403.08,-102.13 406.58,-104.37"/>
    </edge>
    <edge id=":J6_2" function="internal">
        <lane id=":J6_2_0" index="0" speed="6.34" length="9.04" shape="408.96,-98.43 406.80,-97.17 405.61,-95.54 405.42,-93.54 406.21,-91.16"/>
    </edge>
    <edge id=":J6_3" function="internal">
        <lane id=":J6_3_0" index="0" speed="13.89" length="14.24" shape="408.96,-98.43 395.52,-93.45"/>
        <lane id=":J6_3_1" index="1" speed="13.89" length="14.24" shape="407.77,-101.40 394.51,-96.48"/>
    </edge>
    <edge id=":J6_5" function="internal">
        <lane id=":J6_5_0" index="0" speed="13.89" length="14.23" shape="391.48,-105.59 395.54,-106.43 398.48,-106.32 401.40,-106.27 405.38,-107.34"/>
        <lane id=":J6_5_1" index="1" speed="13.89" length="14.23" shape="392.49,-102.56 396.61,-103.41 399.59,-103.31 402.54,-103.28 406.58,-104.37"/>
    </edge>
    <edge id=":J6_7" function="internal">
        <lane id=":J6_7_0" index="0" speed="9.11" length="2.99" shape="393.50,-99.52 396.47,-99.85"/>
    </edge>
    <edge id=":J6_8" function="internal">
        <lane id=":J6_8_0" index="0" speed="9.11" length="13.69" shape="396.47,-99.85 397.04,-99.91 400.33,-98.65 403.39,-95.73 406.21,-91.16"/>
    </edge>
    <edge id=":J7_0" function="internal">
        <lane id=":J7_0_0" index="0" speed="13.89" length="0.75" shape="498.40,100.76 498.40,100.53 498.38,100.38 498.33,100.24 498.23,100.04"/>
    </edge>
    <edge id=":J7_1" function="internal">
        <lane id=":J7_1_0" index="0" speed="8.09" length="2.24" shape="501.09,98.61 501.38,99.21 501.53,99.64 501.59,100.09 501.60,100.76"/>
    </edge>
    <edge id=":J9_0" function="internal">
        <lane id=":J9_0_0" index="0" speed="13.89" length="8.08" shape="652.27,-196.45 644.77,-193.28"/>
        <lane id=":J9_0_1" index="1" speed="13.89" length="8.08" shape="650.96,-199.37 643.58,-196.24"/>
    </edge>
    <edge id=":J9_2" function="internal">
        <lane id=":J9_2_0" index="0" speed="13.89" length="8.37" shape="641.19,-202.18 643.21,-203.53 644.15,-205.11 645.08,-206.71 647.06,-208.14"/>
        <lane id=":J9_2_1" index="1" speed="13.89" length="8.37" shape="642.39,-199.21 644.43,-200.58 645.40,-202.16 646.35,-203.78 648.36,-205.22"/>
        <lane id=":J9_2_2" index="2" speed="13.89" length="8.37" shape="642.39,-199.21 649.66,-202.30"/>
    </edge>

    <edge id="-E10" from="J10" to="J9" priority="-1">
        <lane id="-E10_0" index="0" speed="13.89" length="119.47" shape="761.40,-245.06 652.27,-196.45"/>
        <lane id="-E10_1" index="1" speed="13.89" length="119.47" shape="760.10,-247.99 650.96,-199.37"/>
    </edge>
    <edge id="-E11" from="J10" to="J11" priority="-1">
        <lane id="-E11_0" index="0" speed="13.89" length="218.34" shape="780.63,-247.24 871.95,-48.92"/>
        <lane id="-E11_1" index="1" speed="13.89" length="218.34" shape="777.73,-245.91 869.05,-47.58"/>
    </edge>
    <edge id="-E12" from="J11" to="J12" priority="-1">
        <lane id="-E12_0" index="0" speed="13.89" length="187.56" shape="872.32,-37.58 909.80,146.20"/>
        <lane id="-E12_1" index="1" speed="13.89" length="187.56" shape="869.19,-36.94 906.67,146.84"/>
    </edge>
    <edge id="-E13" from="J13" to="J10" priority="-1">
        <lane id="-E13_0" index="0" speed="13.89" length="126.89" shape="901.04,-302.37 783.51,-254.54"/>
        <lane id="-E13_1" index="1" speed="13.89" length="126.89" shape="899.83,-305.34 782.31,-257.50"/>
    </edge>
    <edge id="-E3" from="J3" to="J2" priority="-1">
        <lane id="-E3_0" index="0" speed="13.89" length="82.40" shape="4.80,-96.00 4.80,-13.60"/>
        <lane id="-E3_1" index="1" speed="13.89" length="82.40" shape="1.60,-96.00 1.60,-13.60"/>
    </edge>
    <edge id="-E4" from="J4" to="J3" priority="-1">
        <lane id="-E4_0" index="0" speed="13.89" length="296.00" shape="1.60,-400.00 1.60,-104.00"/>
    </edge>
    <edge id="-E5" from="J5" to="J2" priority="-1">
        <lane id="-E5_0" index="0" speed="13.89" length="74.44" shape="84.84,8.00 10.40,8.00"/>
        <lane id="-E5_1" index="1" speed="13.89" length="74.44" shape="84.84,4.80 10.40,4.80"/>
        <lane id="-E5_2" index="2" speed="13.89" length="74.44" shape="84.84,1.60 10.40,1.60"/>
    </edge>
    <edge id="-E6" from="J6" to="J5" priority="-1">
        <lane id="-E6_0" index="0" speed="13.89" length="314.47" shape="395.52,-93.45 97.19,6.00"/>
        <lane id="-E6_1" index="1" speed="13.89" length="314.47" shape="394.51,-96.48 96.18,2.96"/>
    </edge>
    <edge id="-E7" from="J6" to="J7" priority="-1">
        <lane id="-E7_0" index="0" speed="13.89" length="212.17" shape="406.21,-91.16 501.09,98.61"/>
    </edge>
    <edge id="-E8" from="J7" to="J8" priority="-1">
        <lane id="-E8_0" index="0" speed="13.89" length="399.24" shape="501.60,100.76 501.60,500.00"/>
    </edge>
    <edge id="-E9" from="J9" to="J6" priority="-1">
        <lane id="-E9_0" index="0" speed="13.89" length="254.17" shape="644.77,-193.28 408.96,-98.43"/>
        <lane id="-E9_1" index="1" speed="13.89" length="254.17" shape="643.58,-196.24 407.77,-101.40"/>
    </edge>
    <edge id="E0" from="J0" to="J1" priority="-1">
        <lane id="E0_0" index="0" speed="13.89" length="96.00" shape="-200.00,-4.80 -104.00,-4.80"/>
        <lane id="E0_1" index="1" speed="13.89" length="96.00" shape="-200.00,-1.60 -104.00,-1.60"/>
    </edge>
    <edge id="E1" from="J1" to="J2" priority="-1">
        <lane id="E1_0" index="0" speed="13.89" length="85.60" shape="-96.00,-8.00 -10.40,-8.00"/>
        <lane id="E1_1" index="1" speed="13.89" length="85.60" shape="-96.00,-4.80 -10.40,-4.80"/>
        <lane id="E1_2" index="2" speed="13.89" length="85.60" shape="-96.00,-1.60 -10.40,-1.60"/>
    </edge>
    <edge id="E10" from="J9" to="J10" priority="-1">
        <lane id="E10_0" index="0" speed="13.89" length="119.47" shape="647.06,-208.14 756.19,-256.76"/>
        <lane id="E10_1" index="1" speed="13.89" length="119.47" shape="648.36,-205.22 757.50,-253.83"/>
        <lane id="E10_2" index="2" speed="13.89" length="119.47" shape="649.66,-202.30 758.80,-250.91"/>
    </edge>
    <edge id="E11" from="J11" to="J10" priority="-1">
        <lane id="E11_0" index="0" speed="13.89" length="218.34" shape="860.33,-43.56 769.01,-241.89"/>
        <lane id="E11_1" index="1" speed="13.89" length="218.34" shape="863.23,-44.90 771.91,-243.23"/>
        <lane id="E11_2" index="2" speed="13.89" length="218.34" shape="866.14,-46.24 774.82,-244.57"/>
    </edge>
    <edge id="E12" from="J12" to="J11" priority="-1">
        <lane id="E12_0" index="0" speed="13.89" length="187.56" shape="900.40,148.12 862.92,-35.66"/>
        <lane id="E12_1" index="1" speed="13.89" length="187.56" shape="903.53,147.48 866.05,-36.30"/>
    </edge>
    <edge id="E13" from="J10" to="J13" priority="-1">
        <lane id="E13_0" index="0" speed="13.89" length="126.89" shape="779.90,-263.43 897.42,-311.27"/>
        <lane id="E13_1" index="1" speed="13.89" length="126.89" shape="781.10,-260.46 898.63,-308.30"/>
    </edge>
    <edge id="E14" from="J13" to="J15" priority="-1">
        <lane id="E14_0" index="0" speed="13.89" length="269.47" shape="910.55,-322.58 911.03,-592.05"/>
    </edge>
    <edge id="E15" from="J15" to="J16" priority="-1">
        <lane id="E15_0" index="0" speed="13.89" length="174.15" shape="914.23,-592.05 914.15,-417.90"/>
    </edge>
    <edge id="E16" from="J16" to="J13" priority="-1">
        <lane id="E16_0" index="0" speed="13.89" length="87.33" shape="917.33,-409.89 916.97,-322.57"/>
        <lane id="E16_1" index="1" speed="13.89" length="87.33" shape="914.13,-409.91 913.77,-322.57"/>
    </edge>
    <edge id="E17" from="J13" to="J17" priority="-1">
        <lane id="E17_0" index="0" speed="13.89" length="536.58" shape="922.58,-317.02 1459.10,-324.84"/>
        <lane id="E17_1" index="1" speed="13.89" length="536.58" shape="922.63,-313.82 1459.15,-321.64"/>
    </edge>
    <edge id="E18" from="J17" to="J18" priority="-1">
        <lane id="E18_0" index="0" speed="13.89" length="340.66" shape="1459.25,-315.24 1118.64,-309.41"/>
        <lane id="E18_1" index="1" speed="13.89" length="340.66" shape="1459.20,-318.44 1118.59,-312.61"/>
    </edge>
    <edge id="E19" from="J18" to="J13" priority="-1">
        <lane id="E19_0" index="0" speed="13.89" length="187.93" shape="1110.67,-306.10 922.77,-304.18"/>
        <lane id="E19_1" index="1" speed="13.89" length="187.93" shape="1110.64,-309.30 922.72,-307.38"/>
        <lane id="E19_2" index="2" speed="13.89" length="187.93" shape="1110.61,-312.50 922.67,-310.58"/>
    </edge>
    <edge id="E2" from="J2" to="J0" priority="-1">
        <lane id="E2_0" index="0" speed="13.89" length="189.60" shape="-10.40,4.80 -200.00,4.80"/>
        <lane id="E2_1" index="1" speed="13.89" length="189.60" shape="-10.40,1.60 -200.00,1.60"/>
    </edge>
    <edge id="E3" from="J2" to="J3" priority="-1" length="50.00">
        <lane id="E3_0" index="0" speed="13.89" length="50.00" shape="-4.80,-13.60 -4.80,-96.00"/>
        <lane id="E3_1" index="1" speed="13.89" length="50.00" shape="-1.60,-13.60 -1.60,-96.00"/>
    </edge>
    <edge id="E4" from="J3" to="J4" priority="-1">
        <lane id="E4_0" index="0" speed="13.89" length="296.00" shape="-1.60,-104.00 -1.60,-400.00"/>
    </edge>
    <edge id="E5" from="J2" to="J5" priority="-1">
        <lane id="E5_0" index="0" speed="13.89" length="74.44" shape="10.40,-4.80 84.84,-4.80"/>
        <lane id="E5_1" index="1" speed="13.89" length="74.44" shape="10.40,-1.60 84.84,-1.60"/>
    </edge>
    <edge id="E6" from="J5" to="J6" priority="-1">
        <lane id="E6_0" index="0" speed="13.89" length="314.47" shape="93.14,-6.15 391.48,-105.59"/>
        <lane id="E6_1" index="1" speed="13.89" length="314.47" shape="94.15,-3.11 392.49,-102.56"/>
        <lane id="E6_2" index="2" speed="13.89" length="314.47" shape="95.17,-0.08 393.50,-99.52"/>
    </edge>
    <edge id="E7" from="J7" to="J6" priority="-1">
        <lane id="E7_0" index="0" speed="13.89" length="212.17" shape="498.23,100.04 403.35,-89.73"/>
    </edge>
    <edge id="E8" from="J8" to="J7" priority="-1">
        <lane id="E8_0" index="0" speed="13.89" length="399.24" shape="498.40,500.00 498.40,100.76"/>
    </edge>
    <edge id="E9" from="J6" to="J9" priority="-1">
        <lane id="E9_0" index="0" speed="13.89" length="254.17" shape="405.38,-107.34 641.19,-202.18"/>
        <lane id="E9_1" index="1" speed="13.89" length="254.17" shape="406.58,-104.37 642.39,-199.21"/>
    </edge>

    <tlLogic id="J10" type="static" programID="0" offset="0">
        <phase duration="38" state="GGgrrrGGG"/>
        <phase duration="3"  state="yyyrrryyy"/>
        <phase duration="37" state="rrrGGGGrr"/>
        <phase duration="3"  state="rrryyyyrr"/>
    </tlLogic>
    <tlLogic id="J13" type="static" programID="0" offset="0">
        <phase duration="38" state="GGgrrrGGG"/>
        <phase duration="3"  state="yyyrrryyy"/>
        <phase duration="37" state="rrrGGGGrr"/>
        <phase duration="3"  state="rrryyyyrr"/>
    </tlLogic>
    <tlLogic id="J2" type="static" programID="0" offset="0">
        <phase duration="38" state="GGgrrGGG"/>
        <phase duration="3"  state="yyyrryyy"/>
        <phase duration="37" state="rrrGGGrr"/>
        <phase duration="3"  state="rrryyyrr"/>
    </tlLogic>
    <tlLogic id="J6" type="static" programID="0" offset="0">
        <phase duration="38" state="GGgrrGGG"/>
        <phase duration="3"  state="yyyrryyy"/>
        <phase duration="37" state="rrrGGGrr"/>
        <phase duration="3"  state="rrryyyrr"/>
    </tlLogic>

    <junction id="J0" type="dead_end" x="-200.00" y="0.00" incLanes="E2_0 E2_1" intLanes="" shape="-200.00,0.00 -200.00,6.40 -200.00,0.00"/>
    <junction id="J1" type="priority" x="-100.00" y="0.00" incLanes="E0_0 E0_1" intLanes=":J1_0_0 :J1_0_1 :J1_0_2" shape="-96.00,0.00 -96.00,-9.60 -99.03,-8.77 -100.97,-7.23 -102.21,-6.64 -104.00,-6.40 -104.00,0.00">
        <request index="0" response="000" foes="000" cont="0"/>
        <request index="1" response="000" foes="000" cont="0"/>
        <request index="2" response="000" foes="000" cont="0"/>
    </junction>
    <junction id="J10" type="traffic_light" x="771.80" y="-254.95" incLanes="E11_0 E11_1 E11_2 -E13_0 -E13_1 E10_0 E10_1 E10_2" intLanes=":J10_0_0 :J10_1_0 :J10_1_1 :J10_3_0 :J10_4_0 :J10_4_1 :J10_6_0 :J10_6_1 :J10_9_0" shape="767.55,-241.22 782.09,-247.91 781.57,-250.10 781.76,-251.01 782.25,-251.81 783.03,-252.49 784.12,-253.05 779.29,-264.91 774.35,-263.15 770.56,-262.22 767.36,-261.70 764.17,-261.15 760.42,-260.13 755.54,-258.22 762.05,-243.60 764.29,-244.06 765.26,-243.82 766.12,-243.27 766.89,-242.40">
        <request index="0" response="000110000" foes="000110000" cont="0"/>
        <request index="1" response="111110000" foes="111110000" cont="0"/>
        <request index="2" response="111110000" foes="111110000" cont="0"/>
        <request index="3" response="000000000" foes="000000000" cont="0"/>
        <request index="4" response="000000000" foes="100000111" cont="0"/>
        <request index="5" response="000000000" foes="100000111" cont="0"/>
        <request index="6" response="000000000" foes="000000110" cont="0"/>
        <request index="7" response="000000000" foes="000000110" cont="0"/>
        <request index="8" response="000110000" foes="000110110" cont="1"/>
    </junction>
    <junction id="J11" type="priority" x="863.87" y="-55.00" incLanes="E12_0 E12_1 -E11_0 -E11_1" intLanes=":J11_0_0 :J11_0_1 :J11_0_2 :J11_3_0 :J11_3_1" shape="861.35,-35.34 873.89,-37.90 873.62,-40.39 873.79,-42.30 874.13,-43.90 874.36,-45.47 874.21,-47.28 873.41,-49.59 858.87,-42.90 860.08,-40.20 860.44,-39.23 860.72,-38.23 861.00,-37.00">
        <request index="0" response="00000" foes="00000" cont="0"/>
        <request index="1" response="00000" foes="00000" cont="0"/>
        <request index="2" response="00000" foes="00000" cont="0"/>
        <request index="3" response="00000" foes="00000" cont="0"/>
        <request index="4" response="00000" foes="00000" cont="0"/>
    </junction>
    <junction id="J12" type="dead_end" x="905.10" y="147.16" incLanes="-E12_0 -E12_1" intLanes="" shape="905.10,147.16 911.37,145.88 905.10,147.16"/>
    <junction id="J13" type="traffic_light" x="912.13" y="-312.07" incLanes="E19_0 E19_1 E19_2 E16_0 E16_1 E13_0 E13_1" intLanes=":J13_0_0 :J13_0_1 :J13_9_0 :J13_3_0 :J13_4_0 :J13_4_1 :J13_6_0 :J13_7_0 :J13_7_1" shape="922.79,-302.58 922.56,-318.62 920.34,-319.03 919.56,-319.58 919.01,-320.35 918.68,-321.34 918.57,-322.56 908.95,-322.58 907.60,-319.31 905.91,-317.67 903.55,-316.03 900.52,-314.39 896.82,-312.75 901.64,-300.89 905.89,-302.40 909.14,-303.08 911.92,-303.19 914.78,-302.98 918.22,-302.69">
        <request index="0" response="000000000" foes="000110000" cont="0"/>
        <request index="1" response="000000000" foes="000110000" cont="0"/>
        <request index="2" response="111000000" foes="111110000" cont="1"/>
        <request index="3" response="110000000" foes="110000000" cont="0"/>
        <request index="4" response="110000111" foes="110000111" cont="0"/>
        <request index="5" response="110000111" foes="110000111" cont="0"/>
        <request index="6" response="000000000" foes="000000100" cont="0"/>
        <request index="7" response="000000000" foes="000111100" cont="0"/>
        <request index="8" response="000000000" foes="000111100" cont="0"/>
    </junction>
    <junction id="J15" type="dead_end" x="912.63" y="-592.05" incLanes="E14_0" intLanes="" shape="912.63,-592.05 915.83,-592.05 909.43,-592.06"/>
    <junction id="J16" type="priority" x="912.55" y="-413.91" incLanes="E15_0" intLanes=":J16_0_0 :J16_0_1" shape="915.75,-417.90 912.55,-417.90 912.53,-409.91 918.93,-409.89 918.12,-412.92 916.58,-414.87 915.99,-416.11">
        <request index="0" response="00" foes="00" cont="0"/>
        <request index="1" response="00" foes="00" cont="0"/>
    </junction>
    <junction id="J17" type="dead_end" x="1459.17" y="-320.04" incLanes="E17_0 E17_1" intLanes="" shape="1459.17,-320.04 1459.28,-313.64 1459.08,-326.44"/>
    <junction id="J18" type="priority" x="1114.58" y="-314.14" incLanes="E18_0 E18_1" intLanes=":J18_0_0 :J18_0_1 :J18_0_2" shape="1118.67,-307.81 1118.56,-314.21 1110.59,-314.10 1110.69,-304.50 1113.72,-305.36 1115.64,-306.93 1116.88,-307.54">
        <request index="0" response="000" foes="000" cont="0"/>
        <request index="1" response="000" foes="000" cont="0"/>
        <request index="2" response="000" foes="000" cont="0"/>
    </junction>
    <junction id="J2" type="traffic_light" x="0.00" y="0.00" incLanes="-E5_0 -E5_1 -E5_2 -E3_0 -E3_1 E1_0 E1_1 E1_2" intLanes=":J2_0_0 :J2_0_1 :J2_8_0 :J2_3_0 :J2_4_0 :J2_5_0 :J2_6_0 :J2_6_1" shape="10.40,9.60 10.40,-6.40 8.18,-7.20 7.40,-8.20 6.84,-9.60 6.51,-11.40 6.40,-13.60 -6.40,-13.60 -6.84,-11.38 -7.40,-10.60 -8.18,-10.04 -9.18,-9.71 -10.40,-9.60 -10.40,6.40 -5.94,6.64 -2.67,7.23 2.67,8.77 5.94,9.36">
        <request index="0" response="00000000" foes="00010000" cont="0"/>
        <request index="1" response="00000000" foes="00010000" cont="0"/>
        <request index="2" response="11000000" foes="11010000" cont="1"/>
        <request index="3" response="11000000" foes="11000000" cont="0"/>
        <request index="4" response="11000111" foes="11000111" cont="0"/>
        <request index="5" response="00000000" foes="00000000" cont="0"/>
        <request index="6" response="00000000" foes="00011100" cont="0"/>
        <request index="7" response="00000000" foes="00011100" cont="0"/>
    </junction>
    <junction id="J3" type="priority" x="0.00" y="-100.00" incLanes="E3_0 E3_1 -E4_0" intLanes=":J3_0_0 :J3_1_0 :J3_1_1" shape="-6.40,-96.00 6.40,-96.00 5.57,-99.03 4.03,-100.97 3.44,-102.21 3.20,-104.00 -3.20,-104.00 -4.03,-100.97 -5.57,-99.03 -6.16,-97.79">
        <request index="0" response="000" foes="000" cont="0"/>
        <request index="1" response="000" foes="000" cont="0"/>
        <request index="2" response="000" foes="000" cont="0"/>
    </junction>
    <junction id="J4" type="dead_end" x="0.00" y="-400.00" incLanes="E4_0" intLanes="" shape="0.00,-400.00 -3.20,-400.00 0.00,-400.00"/>
    <junction id="J5" type="priority" x="100.00" y="0.00" incLanes="-E6_0 -E6_1 E5_0 E5_1" intLanes=":J5_0_0 :J5_0_1 :J5_0_2 :J5_3_0 :J5_3_1 :J5_3_2" shape="97.70,7.51 92.64,-7.66 89.83,-6.78 88.82,-6.56 87.79,-6.45 86.53,-6.41 84.84,-6.40 84.84,9.60 87.63,9.59 89.70,9.52 91.39,9.33 93.07,8.97 95.05,8.38">
        <request index="0" response="000000" foes="000000" cont="0"/>
        <request index="1" response="000000" foes="000000" cont="0"/>
        <request index="2" response="000000" foes="000000" cont="0"/>
        <request index="3" response="000000" foes="000000" cont="0"/>
        <request index="4" response="000000" foes="000000" cont="0"/>
        <request index="5" response="000000" foes="000000" cont="0"/>
    </junction>
    <junction id="J6" type="traffic_light" x="400.00" y="-100.00" incLanes="E7_0 -E9_0 -E9_1 E6_0 E6_1 E6_2" intLanes=":J6_0_0 :J6_1_0 :J6_2_0 :J6_3_0 :J6_3_1 :J6_5_0 :J6_5_1 :J6_8_0" shape="401.91,-89.01 407.64,-91.88 407.06,-94.03 407.23,-94.93 407.70,-95.72 408.48,-96.39 409.56,-96.95 404.79,-108.82 401.98,-107.95 399.80,-107.71 397.93,-107.82 396.05,-107.95 393.84,-107.82 390.97,-107.11 396.03,-91.93 398.37,-92.17 399.40,-91.83 400.33,-91.20 401.17,-90.26">
        <request index="0" response="00011000" foes="00011000" cont="0"/>