<?xml version="1.0" encoding="UTF-8"?>
<routes xmlns:xsi="http://www.w3.org/2001/XMLSchema-instance" xsi:noNamespaceSchemaLocation="http://sumo.dlr.de/xsd/routes_file.xsd">
    <vehicle id="0" depart="0.00">
        <route edges="-E9 -E6"/>
    </vehicle>
    <vehicle id="1" depart="1.00">
        <route edges="-E12 -E9"/>
    </vehicle>
    <vehicle id="2" depart="2.00">
        <route edges="-E9 E7"/>
    </vehicle>
    <vehicle id="4" depart="4.00">
        <route edges="-E7 -E6"/>
    </vehicle>
    <vehicle id="5" depart="5.00">
        <route edges="-E11 E12"/>
    </vehicle>
    <vehicle id="6" depart="6.00">
        <route edges="-E10 -E9"/>
    </vehicle>
    <vehicle id="8" depart="8.00">
        <route edges="-E11 E12"/>
    </vehicle>
    <vehicle id="10" depart="10.00">
        <route edges="E6 E7"/>
    </vehicle>
    <vehicle id="11" depart="11.00">
        <route edges="-E12 -E9"/>
    </vehicle>
    <vehicle id="12" depart="12.00">
        <route edges="E9 E10"/>
    </vehicle>
    <vehicle id="13" depart="13.00">
        <route edges="-E10 -E9 -E6"/>
    </vehicle>
    <vehicle id="14" depart="14.00">
        <route edges="E6 E9 E12"/>
    </vehicle>
    <vehicle id="15" depart="15.00">
        <route edges="E6 E7"/>
    </vehicle>
    <vehicle id="16" depart="16.00">
        <route edges="-E8 E9"/>
    </vehicle>
    <vehicle id="17" depart="17.00">
        <route edges="-E7 E9 E12"/>
    </vehicle>
    <vehicle id="18" depart="18.00">
        <route edges="E6 E9 E12"/>
    </vehicle>
    <vehicle id="19" depart="19.00">
        <route edges="E6 E9 E12"/>
    </vehicle>
    <vehicle id="20" depart="20.00">
        <route edges="-E9 -E6"/>
    </vehicle>
    <vehicle id="21" depart="21.00">
        <route edges="-E11 E10"/>
    </vehicle>
    <vehicle id="22" depart="22.00">
        <route edges="-E10 -E9"/>
    </vehicle>
    <vehicle id="25" depart="25.00">
        <route edges="-E12 -E9"/>
    </vehicle>
    <vehicle id="28" depart="28.00">
        <route edges="-E11 -E9 E7"/>
    </vehicle>
    <vehicle id="31" depart="31.00">
        <route edges="-E8 E7"/>
    </vehicle>
    <vehicle id="32" depart="32.00">
        <route edges="E6 E8"/>
    </vehicle>
    <vehicle id="33" depart="33.00">
        <route edges="-E11 -E9 -E6"/>
    </vehicle>
    <vehicle id="34" depart="34.00">
        <route edges="-E12 E10"/>
    </vehicle>
    <vehicle id="36" depart="36.00">
        <route edges="E9 E10"/>
    </vehicle>
    <vehicle id="38" depart="38.00">
        <route edges="E9 E11"/>
    </vehicle>
    <vehicle id="39" depart="39.00">
        <route edges="-E12 -E9"/>
    </vehicle>
    <vehicle id="40" depart="40.00">
        <route edges="-E8 E9 E10"/>
    </vehicle>
    <vehicle id="41" depart="41.00">
        <route edges="-E8 E9"/>
    </vehicle>
    <vehicle id="43" depart="43.00">
        <route edges="E9 E12"/>
    </vehicle>
    <vehicle id="44" depart="44.00">
        <route edges="-E10 -E9 -E6"/>
    </vehicle>
    <vehicle id="45" depart="45.00">
        <route edges="-E10 -E9 E7"/>
    </vehicle>
    <vehicle id="46" depart="46.00">
        <route edges="E6 E9 E11"/>
    </vehicle>
    <vehicle id="47" depart="47.00">
        <route edges="-E10 E11"/>
    </vehicle>
    <vehicle id="48" depart="48.00">
        <route edges="E9 E12"/>
    </vehicle>
    <vehicle id="50" depart="50.00">
        <route edges="-E10 -E9 E7"/>
    </vehicle>
    <vehicle id="52" depart="52.00">
        <route edges="-E12 -E9 E7"/>
    </vehicle>
    <vehicle id="53" depart="53.00">
        <route edges="-E10 E11"/>
    </vehicle>
    <vehicle id="54" depart="54.00">
        <route edges="-E7 E9"/>
    </vehicle>
    <vehicle id="55" depart="55.00">
        <route edges="E9 E10"/>
    </vehicle>
    <vehicle id="58" depart="58.00">
        <route edges="-E12 -E9 E7"/>
    </vehicle>
    <vehicle id="60" depart="60.00">
        <route edges="E6 E9 E12"/>
    </vehicle>
    <vehicle id="61" depart="61.00">
        <route edges="E6 E9 E12"/>
    </vehicle>
    <vehicle id="65" depart="65.00">
        <route edges="-E12 -E9 -E6"/>
    </vehicle>
    <vehicle id="66" depart="66.00">
        <route edges="E9"/>
    </vehicle>
    <vehicle id="67" depart="67.00">
        <route edges="-E10 E11"/>
    </vehicle>
    <vehicle id="68" depart="68.00">
        <route edges="-E10 -E9 E8"/>
    </vehicle>
    <vehicle id="70" depart="70.00">
        <route edges="-E7 E9 E12"/>
    </vehicle>
    <vehicle id="71" depart="71.00">
        <route edges="-E12 -E9 E8"/>
    </vehicle>
    <vehicle id="73" depart="73.00">
        <route edges="-E8 E7"/>
    </vehicle>
    <vehicle id="74" depart="74.00">
        <route edges="-E11 E10"/>
    </vehicle>
    <vehicle id="76" depart="76.00">
        <route edges="-E7 E9 E12"/>
    </vehicle>
    <vehicle id="77" depart="77.00">
        <route edges="-E10 -E9"/>
    </vehicle>
    <vehicle id="79" depart="79.00">
        <route edges="-E11 -E9"/>
    </vehicle>
    <vehicle id="80" depart="80.00">
        <route edges="-E10 -E9 E7"/>
    </vehicle>
    <vehicle id="83" depart="83.00">
        <route edges="-E11 -E9 E7"/>
    </vehicle>
    <vehicle id="84" depart="84.00">
        <route edges="-E11 -E9"/>
    </vehicle>
    <vehicle id="85" depart="85.00">
        <route edges="E9 E12"/>
    </vehicle>
    <vehicle id="86" depart="86.00">
        <route edges="-E7 E8"/>
    </vehicle>
    <vehicle id="88" depart="88.00">
        <route edges="-E10 E11"/>
    </vehicle>
    <vehicle id="89" depart="89.00">
        <route edges="-E7 E9 E11"/>
    </vehicle>
    <vehicle id="90" depart="90.00">
        <route edges="-E9 E7"/>
    </vehicle>
    <vehicle id="92" depart="92.00">
        <route edges="-E7 E9 E10"/>
    </vehicle>
    <vehicle id="95" depart="95.00">
        <route edges="-E7 E9 E10"/>
    </vehicle>
    <vehicle id="97" depart="97.00">
        <route edges="-E7 E8"/>
    </vehicle>
    <vehicle id="98" depart="98.00">
        <route edges="-E8 -E6"/>
    </vehicle>
    <vehicle id="100" depart="100.00">
        <route edges="E9"/>
    </vehicle>
    <vehicle id="103" depart="103.00">
        <route edges="-E7 -E6"/>
    </vehicle>
    <vehicle id="104" depart="104.00">
        <route edges="-E7 E9"/>
    </vehicle>
    <vehicle id="105" depart="105.00">
        <route edges="-E12 -E9 E8"/>
    </vehicle>
    <vehicle id="106" depart="106.00">
        <route edges="-E7 E9 E11"/>
    </vehicle>
    <vehicle id="107" depart="107.00">
        <route edges="E9"/>
    </vehicle>
    <vehicle id="108" depart="108.00">
        <route edges="-E8 E7"/>
    </vehicle>
    <vehicle id="109" depart="109.00">
        <route edges="-E11 E10"/>
    </vehicle>
    <vehicle id="110" depart="110.00">
        <route edges="E9 E12"/>
    </vehicle>
    <vehicle id="111" depart="111.00">
        <route edges="-E8 E7"/>
    </vehicle>
    <vehicle id="112" depart="112.00">
        <route edges="-E10 E12"/>
    </vehicle>
    <vehicle id="115" depart="115.00">
        <route edges="-E10 -E9"/>
    </vehicle>
    <vehicle id="116" depart="116.00">
        <route edges="-E8 E7"/>
    </vehicle>
    <vehicle id="117" depart="117.00">
        <route edges="-E11 -E9 -E6"/>
    </vehicle>
    <vehicle id="119" depart="119.00">
        <route edges="-E8 E9 E12"/>
    </vehicle>
    <vehicle id="120" depart="120.00">
        <route edges="-E7 E9 E12"/>
    </vehicle>
    <vehicle id="121" depart="121.00">
        <route edges="-E8 E9"/>
    </vehicle>
    <vehicle id="122" depart="122.00">
        <route edges="-E11 -E9 E7"/>
    </vehicle>
    <vehicle id="125" depart="125.00">
        <route edges="-E12 -E9 E8"/>
    </vehicle>
    <vehicle id="126" depart="126.00">
        <route edges="-E10 E11"/>
    </vehicle>
    <vehicle id="127" depart="127.00">
        <route edges="E9"/>
    </vehicle>
    <vehicle id="128" depart="128.00">
        <route edges="-E10 -E9"/>
    </vehicle>
    <vehicle id="130" depart="130.00">
        <route edges="E9"/>
    </vehicle>
    <vehicle id="131" depart="131.00">
        <route edges="-E12 -E9"/>
    </vehicle>
    <vehicle id="132" depart="132.00">
        <route edges="E6 E7"/>
    </vehicle>
    <vehicle id="133" depart="133.00">
        <route edges="-E8 E9"/>
    </vehicle>
    <vehicle id="134" depart="134.00">
        <route edges="-E9 -E6"/>
    </vehicle>
    <vehicle id="135" depart="135.00">
        <route edges="E6 E9 E10"/>
    </vehicle>
    <vehicle id="137" depart="137.00">
        <route edges="-E11 -E9 -E6"/>
    </vehicle>
    <vehicle id="138" depart="138.00">
        <route edges="-E10 E12"/>
    </vehicle>
    <vehicle id="140" depart="140.00">
        <route edges="-E9"/>
    </vehicle>
    <vehicle id="142" depart="142.00">
        <route edges="-E7 E9"/>
    </vehicle>
    <vehicle id="144" depart="144.00">
        <route edges="-E7 E9 E10"/>
    </vehicle>
    <vehicle id="145" depart="145.00">
        <route edges="-E10 -E9 E8"/>
    </vehicle>
    <vehicle id="148" depart="148.00">
        <route edges="-E7 -E6"/>
    </vehicle>
    <vehicle id="150" depart="150.00">
        <route edges="E9 E12"/>
    </vehicle>
    <vehicle id="151" depart="151.00">
        <route edges="E6 E9 E12"/>
    </vehicle>
    <vehicle id="152" depart="152.00">
        <route edges="-E11 -E9"/>
    </vehicle>
    <vehicle id="154" depart="154.00">
        <route edges="E6 E8"/>
    </vehicle>
    <vehicle id="156" depart="156.00">
        <route edges="-E11 -E9 -E6"/>
    </vehicle>
    <vehicle id="157" depart="157.00">
        <route edges="E6 E9"/>
    </vehicle>
    <vehicle id="158" depart="158.00">
        <route edges="-E7 E9 E12"/>
    </vehicle>
    <vehicle id="160" depart="160.00">
        <route edges="E6 E9"/>
    </vehicle>
    <vehicle id="161" depart="161.00">
        <route edges="E6 E9"/>
    </vehicle>
    <vehicle id="162" depart="162.00">
        <route edges="-E10 -E9 E7"/>
    </vehicle>
    <vehicle id="164" depart="164.00">
        <route edges="E6 E8"/>
    </vehicle>
    <vehicle id="165" depart="165.00">
        <route edges="E6 E9 E10"/>
    </vehicle>
    <vehicle id="167" depart="167.00">
        <route edges="E6 E8"/>
    </vehicle>
    <vehicle id="168" depart="168.00">
        <route edges="-E11 -E9 E8"/>
    </vehicle>
    <vehicle id="169" depart="169.00">
        <route edges="-E7 E9 E10"/>
    </vehicle>
    <vehicle id="171" depart="171.00">
        <route edges="-E10 -E9"/>
    </vehicle>
    <vehicle id="172" depart="172.00">
        <route edges="-E12 -E9 E8"/>
    </vehicle>
    <vehicle id="173" depart="173.00">
        <route edges="E9 E10"/>
    </vehicle>
    <vehicle id="175" depart="175.00">
        <route edges="E9 E12"/>
    </vehicle>
    <vehicle id="178" depart="178.00">
        <route edges="E9 E10"/>
    </vehicle>
    <vehicle id="179" depart="179.00">
        <route edges="-E10 E11"/>
    </vehicle>
    <vehicle id="181" depart="181.00">
        <route edges="-E8 E9 E12"/>
    </vehicle>
    <vehicle id="182" depart="182.00">
        <route edges="-E7 E9 E12"/>
    </vehicle>
    <vehicle id="183" depart="183.00">
        <route edges="-E12 -E9 E7"/>
    </vehicle>
    <vehicle id="185" depart="185.00">
        <route edges="-E8 E7"/>
    </vehicle>
    <vehicle id="186" depart="186.00">
        <route edges="-E9 E7"/>
    </vehicle>
    <vehicle id="187" depart="187.00">
        <route edges="-E12 -E9 -E6"/>
    </vehicle>
    <vehicle id="189" depart="189.00">
        <route edges="-E12 -E9 E8"/>
    </vehicle>
    <vehicle id="191" depart="191.00">
        <route edges="-E12 E11"/>
    </vehicle>
    <vehicle id="192" depart="192.00">
        <route edges="-E7 E9 E10"/>
    </vehicle>
    <vehicle id="195" depart="195.00">
        <route edges="E9 E12"/>
    </vehicle>
    <vehicle id="198" depart="198.00">
        <route edges="-E7 E9 E12"/>
    </vehicle>
    <vehicle id="201" depart="201.00">
        <route edges="-E7 E9"/>
    </vehicle>
    <vehicle id="203" depart="203.00">
        <route edges="-E10 E12"/>
    </vehicle>
    <vehicle id="205" depart="205.00">
        <route edges="E6 E8"/>
    </vehicle>
    <vehicle id="206" depart="206.00">
        <route edges="-E9"/>
    </vehicle>
    <vehicle id="207" depart="207.00">
        <route edges="-E11 -E9 -E6"/>
    </vehicle>
    <vehicle id="211" depart="211.00">
        <route edges="-E11 -E9 E7"/>
    </vehicle>
    <vehicle id="213" depart="213.00">
        <route edges="-E9 -E6"/>
    </vehicle>
    <vehicle id="214" depart="214.00">
        <route edges="E6 E8"/>
    </vehicle>
    <vehicle id="215" depart="215.00">
        <route edges="-E10 E11"/>
    </vehicle>
    <vehicle id="217" depart="217.00">
        <route edges="-E8 -E6"/>
    </vehicle>
    <vehicle id="218" depart="218.00">
        <route edges="-E11 -E9 E8"/>
    </vehicle>
    <vehicle id="219" depart="219.00">
        <route edges="-E7 E8"/>
    </vehicle>
    <vehicle id="221" depart="221.00">
        <route edges="-E8 E9"/>
    </vehicle>
    <vehicle id="222" depart="222.00">
        <route edges="E9 E12"/>
    </vehicle>
    <vehicle id="224" depart="224.00">
        <route edges="E6 E9 E12"/>
    </vehicle>
    <vehicle id="226" depart="226.00">
        <route edges="-E7 E9 E10"/>
    </vehicle>
    <vehicle id="227" depart="227.00">
        <route edges="-E11 -E9 E7"/>
    </vehicle>
    <vehicle id="228" depart="228.00">
        <route edges="E6 E9 E12"/>
    </vehicle>
    <vehicle id="231" depart="231.00">
        <route edges="-E12 E10"/>
    </vehicle>
    <vehicle id="233" depart="233.00">
        <route edges="-E11 -E9 E7"/>
    </vehicle>
    <vehicle id="234" depart="234.00">
        <route edges="-E9 -E6"/>
    </vehicle>
    <vehicle id="235" depart="235.00">
        <route edges="-E7 E9 E12"/>
    </vehicle>
    <vehicle id="237" depart="237.00">
        <route edges="-E7 E9"/>
    </vehicle>
    <vehicle id="238" depart="238.00">
        <route edges="-E8 E7"/>
    </vehicle>
    <vehicle id="239" depart="239.00">
        <route edges="E6 E8"/>
    </vehicle>
    <vehicle id="240" depart="240.00">
        <route edges="-E7 -E6"/>
    </vehicle>
    <vehicle id="241" depart="241.00">
        <route edges="-E12 -E9 E8"/>
    </vehicle>
    <vehicle id="242" depart="242.00">
        <route edges="E6 E9"/>
    </vehicle>
    <vehicle id="244" depart="244.00">
        <route edges="-E8 E9 E12"/>
    </vehicle>
    <vehicle id="245" depart="245.00">
        <route edges="-E11 -E9"/>
    </vehicle>
    <vehicle id="246" depart="246.00">
        <route edges="-E7 -E6"/>
    </vehicle>
    <vehicle id="247" depart="247.00">
        <route edges="-E12 -E9 E7"/>
    </vehicle>
    <vehicle id="250" depart="250.00">
        <route edges="-E8 -E6"/>
    </vehicle>
    <vehicle id="251" depart="251.00">
        <route edges="-E7 E9 E12"/>
    </vehicle>
    <vehicle id="252" depart="252.00">
        <route edges="-E10 -E9 E7"/>
    </vehicle>
    <vehicle id="254" depart="254.00">
        <route edges="-E10 E11"/>
    </vehicle>
    <vehicle id="255" depart="255.00">
        <route edges="-E11 E10"/>
    </vehicle>
    <vehicle id="256" depart="256.00">
        <route edges="E6 E9 E11"/>
    </vehicle>
    <vehicle id="257" depart="257.00">
        <route edges="E6 E8"/>
    </vehicle>
    <vehicle id="258" depart="258.00">
        <route edges="-E12 -E9 -E6"/>
    </vehicle>
    <vehicle id="259" depart="259.00">
        <route edges="-E10 E12"/>
    </vehicle>
    <vehicle id="260" depart="260.00">
        <route edges="E9 E10"/>
    </vehicle>
    <vehicle id="261" depart="261.00">
        <route edges="-E9 E8"/>
    </vehicle>
    <vehicle id="262" depart="262.00">
        <route edges="-E9 E8"/>
    </vehicle>
    <vehicle id="264" depart="264.00">
        <route edges="-E10 -E9"/>
    </vehicle>
    <vehicle id="265" depart="265.00">
        <route edges="-E11 -E9 E7"/>
    </vehicle>
    <vehicle id="267" depart="267.00">
        <route edges="-E9 E8"/>
    </vehicle>
    <vehicle id="268" depart="268.00">
        <route edges="-E11 E12"/>
    </vehicle>
    <vehicle id="269" depart="269.00">
        <route edges="-E9 -E6"/>
    </vehicle>
    <vehicle id="270" depart="270.00">
        <route edges="E6 E9"/>
    </vehicle>
    <vehicle id="271" depart="271.00">
        <route edges="-E10 -E9 -E6"/>
    </vehicle>
    <vehicle id="272" depart="272.00">
        <route edges="-E12 -E9 E7"/>
    </vehicle>
    <vehicle id="273" depart="273.00">
        <route edges="E9 E11"/>
    </vehicle>
    <vehicle id="274" depart="274.00">
        <route edges="-E9 -E6"/>
    </vehicle>
    <vehicle id="275" depart="275.00">
        <route edges="-E9 E7"/>
    </vehicle>
    <vehicle id="276" depart="276.00">
        <route edges="-E10 -E9 E8"/>
    </vehicle>
    <vehicle id="277" depart="277.00">
        <route edges="E6 E9 E12"/>
    </vehicle>
    <vehicle id="279" depart="279.00">
        <route edges="E6 E9 E10"/>
    </vehicle>
    <vehicle id="280" depart="280.00">
        <route edges="-E7 E9 E10"/>
    </vehicle>
    <vehicle id="281" depart="281.00">
        <route edges="-E8 E9 E10"/>
    </vehicle>
    <vehicle id="282" depart="282.00">
        <route edges="E6 E8"/>
    </vehicle>
    <vehicle id="284" depart="284.00">
        <route edges="-E9 E8"/>
    </vehicle>
    <vehicle id="287" depart="287.00">
        <route edges="-E12 -E9 E8"/>
    </vehicle>
    <vehicle id="288" depart="288.00">
        <route edges="-E8 E9 E11"/>
    </vehicle>
    <vehicle id="290" depart="290.00">
        <route edges="-E12 -E9 E8"/>
    </vehicle>
    <vehicle id="293" depart="293.00">
        <route edges="-E7 E9 E12"/>
    </vehicle>
    <vehicle id="294" depart="294.00">
        <route edges="-E7 -E6"/>
    </vehicle>
    <vehicle id="296" depart="296.00">
        <route edges="-E11 -E9 E8"/>
    </vehicle>
    <vehicle id="300" depart="300.00">
        <route edges="-E10 -E9 E7"/>
    </vehicle>
    <vehicle id="301" depart="301.00">
        <route edges="-E7 E8"/>
    </vehicle>
    <vehicle id="302" depart="302.00">
        <route edges="-E9 E7"/>
    </vehicle>
    <vehicle id="303" depart="303.00">
        <route edges="-E7 E8"/>
    </vehicle>
    <vehicle id="304" depart="304.00">
        <route edges="-E10 -E9"/>
    </vehicle>
    <vehicle id="306" depart="306.00">
        <route edges="-E8 E9 E11"/>
    </vehicle>
    <vehicle id="307" depart="307.00">
        <route edges="-E8 E9 E11"/>
    </vehicle>
    <vehicle id="310" depart="310.00">
        <route edges="-E12 -E9 -E6"/>
    </vehicle>
    <vehicle id="311" depart="311.00">
        <route edges="-E11 -E9 -E6"/>
    </vehicle>
    <vehicle id="313" depart="313.00">
        <route edges="-E11 -E9"/>
    </vehicle>
    <vehicle id="315" depart="315.00">
        <route edges="E9 E12"/>
    </vehicle>
    <vehicle id="316" depart="316.00">
        <route edges="-E12 -E9 -E6"/>
    </vehicle>
    <vehicle id="317" depart="317.00">
        <route edges="-E11 -E9"/>
    </vehicle>
    <vehicle id="318" depart="318.00">
        <route edges="-E11 -E9 -E6"/>
    </vehicle>
    <vehicle id="319" depart="319.00">
        <route edges="-E8 E9 E10"/>
    </vehicle>
    <vehicle id="320" depart="320.00">
        <route edges="E9 E12"/>
    </vehicle>
    <vehicle id="321" depart="321.00">
        <route edges="-E9"/>
    </vehicle>
    <vehicle id="322" depart="322.00">
        <route edges="E6 E9 E11"/>
    </vehicle>
    <vehicle id="323" depart="323.00">
        <route edges="E6 E9 E12"/>
    </vehicle>
    <vehicle id="324" depart="324.00">
        <route edges="-E7 E9 E11"/>
    </vehicle>
    <vehicle id="325" depart="325.00">
        <route edges="-E11 -E9 -E6"/>
    </vehicle>
    <vehicle id="326" depart="326.00">
        <route edges="E9 E11"/>
    </vehicle>
    <vehicle id="327" depart="327.00">
        <route edges="E6 E9 E11"/>
    </vehicle>
    <vehicle id="328" depart="328.00">
        <route edges="-E10 -E9 E7"/>
    </vehicle>
    <vehicle id="329" depart="329.00">
        <route edges="-E10 -E9"/>
    </vehicle>
    <vehicle id="330" depart="330.00">
        <route edges="-E8 E9 E10"/>
    </vehicle>
    <vehicle id="332" depart="332.00">
        <route edges="E6 E9 E12"/>
    </vehicle>
    <vehicle id="334" depart="334.00">
        <route edges="-E8 E9 E11"/>
    </vehicle>
    <vehicle id="335" depart="335.00">
        <route edges="-E7 E8"/>
    </vehicle>
    <vehicle id="336" depart="336.00">
        <route edges="E9 E10"/>
    </vehicle>
    <vehicle id="337" depart="337.00">
        <route edges="-E8 E9 E12"/>
    </vehicle>
    <vehicle id="339" depart="339.00">
        <route edges="-E11 -E9"/>
    </vehicle>
    <vehicle id="340" depart="340.00">
        <route edges="-E9"/>
    </vehicle>
    <vehicle id="341" depart="341.00">
        <route edges="-E11 -E9 -E6"/>
    </vehicle>
    <vehicle id="342" depart="342.00">
        <route edges="-E10 E11"/>
    </vehicle>
    <vehicle id="343" depart="343.00">
        <route edges="-E8 E9 E10"/>
    </vehicle>
    <vehicle id="344" depart="344.00">
        <route edges="-E11 -E9 E7"/>
    </vehicle>
    <vehicle id="347" depart="347.00">
        <route edges="E6 E7"/>
    </vehicle>
    <vehicle id="349" depart="349.00">
        <route edges="-E7 E9 E12"/>
    </vehicle>
    <vehicle id="352" depart="352.00">
        <route edges="-E11 E10"/>
    </vehicle>
    <vehicle id="354" depart="354.00">
        <route edges="-E12 -E9 -E6"/>
    </vehicle>
    <vehicle id="355" depart="355.00">
        <route edges="-E9 E7"/>
    </vehicle>
    <vehicle id="356" depart="356.00">
        <route edges="E9 E12"/>
    </vehicle>
    <vehicle id="357" depart="357.00">
        <route edges="-E7 -E6"/>
    </vehicle>
    <vehicle id="358" depart="358.00">
        <route edges="-E10 E11"/>
    </vehicle>
    <vehicle id="359" depart="359.00">
        <route edges="-E12 E10"/>
    </vehicle>
    <vehicle id="361" depart="361.00">
        <route edges="E6 E9 E12"/>
    </vehicle>
    <vehicle id="362" depart="362.00">
        <route edges="E9"/>
    </vehicle>
    <vehicle id="364" depart="364.00">
        <route edges="-E10 -E9 E8"/>
    </vehicle>
    <vehicle id="367" depart="367.00">
        <route edges="-E8 E7"/>
    </vehicle>
    <vehicle id="368" depart="368.00">
        <route edges="-E7 -E6"/>
    </vehicle>
    <vehicle id="369" depart="369.00">
        <route edges="-E12 E10"/>
    </vehicle>
    <vehicle id="370" depart="370.00">
        <route edges="-E9 E8"/>
    </vehicle>
    <vehicle id="371" depart="371.00">
        <route edges="-E12 -E9 E7"/>
    </vehicle>
    <vehicle id="373" depart="373.00">
        <route edges="E6 E9 E12"/>
    </vehicle>
    <vehicle id="374" depart="374.00">
        <route edges="-E7 E9 E10"/>
    </vehicle>
    <vehicle id="376" depart="376.00">
        <route edges="-E7 E9 E12"/>
    </vehicle>
    <vehicle id="378" depart="378.00">
        <route edges="-E8 E9 E11"/>
    </vehicle>
    <vehicle id="379" depart="379.00">
        <route edges="-E11 E10"/>
    </vehicle>
    <vehicle id="380" depart="380.00">
        <route edges="E6 E7"/>
    </vehicle>
    <vehicle id="382" depart="382.00">
        <route edges="-E8 E9"/>
    </vehicle>
    <vehicle id="386" depart="386.00">
        <route edges="-E11 E12"/>
    </vehicle>
    <vehicle id="387" depart="387.00">
        <route edges="-E8 -E6"/>
    </vehicle>
    <vehicle id="388" depart="388.00">
        <route edges="E9"/>
    </vehicle>
    <vehicle id="389" depart="389.00">
        <route edges="-E7 -E6"/>
    </vehicle>
    <vehicle id="390" depart="390.00">
        <route edges="E6 E9 E11"/>
    </vehicle>
    <vehicle id="392" depart="392.00">
        <route edges="-E12 -E9 E8"/>
    </vehicle>
    <vehicle id="394" depart="394.00">
        <route edges="-E8 E9 E11"/>
    </vehicle>
    <vehicle id="395" depart="395.00">
        <route edges="E9 E12"/>
    </vehicle>
    <vehicle id="397" depart="397.00">
        <route edges="-E12 -E9 E8"/>
    </vehicle>
    <vehicle id="398" depart="398.00">
        <route edges="-E7 E9"/>
    </vehicle>
    <vehicle id="400" depart="400.00">
        <route edges="-E12 E10"/>
    </vehicle>
    <vehicle id="401" depart="401.00">
        <route edges="-E8 E9"/>
    </vehicle>
    <vehicle id="403" depart="403.00">
        <route edges="-E8 E9 E10"/>
    </vehicle>
    <vehicle id="404" depart="404.00">
        <route edges="-E8 E9 E12"/>
    </vehicle>
    <vehicle id="405" depart="405.00">
        <route edges="-E7 E9 E10"/>
    </vehicle>
    <vehicle id="406" depart="406.00">
        <route edges="-E11 -E9 E7"/>
    </vehicle>
    <vehicle id="409" depart="409.00">
        <route edges="-E9 E7"/>
    </vehicle>
    <vehicle id="410" depart="410.00">
        <route edges="E6 E9 E11"/>
    </vehicle>
    <vehicle id="411" depart="411.00">
        <route edges="-E9 E8"/>
    </vehicle>
    <vehicle id="412" depart="412.00">
        <route edges="E9 E11"/>
    </vehicle>
    <vehicle id="413" depart="413.00">
        <route edges="-E10 E12"/>
    </vehicle>
    <vehicle id="415" depart="415.00">
        <route edges="E6 E9 E11"/>
    </vehicle>
    <vehicle id="416" depart="416.00">
        <route edges="-E8 E9 E11"/>
    </vehicle>
    <vehicle id="418" depart="418.00">
        <route edges="-E9"/>
    </vehicle>
    <vehicle id="419" depart="419.00">
        <route edges="-E7 E9"/>
    </vehicle>
    <vehicle id="420" depart="420.00">
        <route edges="-E12 -E9 E7"/>
    </vehicle>
    <vehicle id="421" depart="421.00">
        <route edges="-E9 E8"/>
    </vehicle>
    <vehicle id="422" depart="422.00">
        <route edges="E6 E8"/>
    </vehicle>
    <vehicle id="423" depart="423.00">
        <route edges="-E7 E9 E10"/>
    </vehicle>
    <vehicle id="424" depart="424.00">
        <route edges="-E9 E8"/>
    </vehicle>
    <vehicle id="426" depart="426.00">
        <route edges="-E10 -E9 E7"/>
    </vehicle>
    <vehicle id="427" depart="427.00">
        <route edges="E9"/>
    </vehicle>
    <vehicle id="429" depart="429.00">
        <route edges="-E10 -E9 E7"/>
    </vehicle>
    <vehicle id="430" depart="430.00">
        <route edges="E6 E9 E11"/>
    </vehicle>
    <vehicle id="432" depart="432.00">
        <route edges="-E10 -E9 E8"/>
    </vehicle>
    <vehicle id="433" depart="433.00">
        <route edges="-E12 E10"/>
    </vehicle>
    <vehicle id="434" depart="434.00">
        <route edges="-E11 E12"/>
    </vehicle>
    <vehicle id="436" depart="436.00">
        <route edges="-E11 -E9 -E6"/>
    </vehicle>
    <vehicle id="437" depart="437.00">
        <route edges="E6 E9 E12"/>
    </vehicle>
    <vehicle id="440" depart="440.00">
        <route edges="-E12 E10"/>
    </vehicle>
    <vehicle id="441" depart="441.00">
        <route edges="-E10 -E9 E8"/>
    </vehicle>
    <vehicle id="446" depart="446.00">
        <route edges="-E12 -E9 E8"/>
    </vehicle>
    <vehicle id="449" depart="449.00">
        <route edges="-E8 E9 E12"/>
    </vehicle>
    <vehicle id="450" depart="450.00">
        <route edges="E9 E10"/>
    </vehicle>
    <vehicle id="453" depart="453.00">
        <route edges="-E9 E7"/>
    </vehicle>
    <vehicle id="454" depart="454.00">
        <route edges="-E10 E12"/>
    </vehicle>
    <vehicle id="455" depart="455.00">
        <route edges="-E7 E9"/>
    </vehicle>
    <vehicle id="456" depart="456.00">
        <route edges="-E12 -E9 E8"/>
    </vehicle>
    <vehicle id="457" depart="457.00">
        <route edges="-E8 E9 E10"/>
    </vehicle>
    <vehicle id="459" depart="459.00">
        <route edges="-E9 E7"/>
    </vehicle>
    <vehicle id="460" depart="460.00">
        <route edges="-E9 E8"/>
    </vehicle>
    <vehicle id="463" depart="463.00">
        <route edges="-E7 E9 E12"/>
    </vehicle>
    <vehicle id="464" depart="464.00">
        <route edges="-E9 -E6"/>
    </vehicle>
    <vehicle id="465" depart="465.00">
        <route edges="-E12 -E9 E7"/>
    </vehicle>
    <vehicle id="466" depart="466.00">
        <route edges="-E11 -E9"/>
    </vehicle>
    <vehicle id="467" depart="467.00">
        <route edges="-E8 E9"/>
    </vehicle>
    <vehicle id="468" depart="468.00">
        <route edges="-E8 E9"/>
    </vehicle>
    <vehicle id="469" depart="469.00">
        <route edges="E6 E9 E10"/>
    </vehicle>
    <vehicle id="470" depart="470.00">
        <route edges="E6 E9 E11"/>
    </vehicle>
    <vehicle id="471" depart="471.00">
        <route edges="E6 E7"/>
    </vehicle>
    <vehicle id="472" depart="472.00">
        <route edges="-E12 -E9 -E6"/>
    </vehicle>
    <vehicle id="477" depart="477.00">
        <route edges="-E12 -E9 E8"/>
    </vehicle>
    <vehicle id="478" depart="478.00">
        <route edges="-E10 E12"/>
    </vehicle>
    <vehicle id="481" depart="481.00">
        <route edges="E6 E9"/>
    </vehicle>
    <vehicle id="482" depart="482.00">
        <route edges="-E10 -E9"/>
    </vehicle>
    <vehicle id="484" depart="484.00">
        <route edges="-E8 E9"/>
    </vehicle>
    <vehicle id="485" depart="485.00">
        <route edges="-E11 -E9 -E6"/>
    </vehicle>
    <vehicle id="486" depart="486.00">
        <route edges="E6 E9"/>
    </vehicle>
    <vehicle id="487" depart="487.00">
        <route edges="-E12 E11"/>
    </vehicle>
    <vehicle id="489" depart="489.00">
        <route edges="-E12 E11"/>
    </vehicle>
    <vehicle id="492" depart="492.00">
        <route edges="-E9 E7"/>
    </vehicle>
    <vehicle id="493" depart="493.00">
        <route edges="E9 E11"/>
    </vehicle>
    <vehicle id="494" depart="494.00">
        <route edges="-E9"/>
    </vehicle>
    <vehicle id="495" depart="495.00">
        <route edges="-E7 -E6"/>
    </vehicle>
    <vehicle id="496" depart="496.00">
        <route edges="-E7 E9 E11"/>
    </vehicle>
    <vehicle id="498" depart="498.00">
        <route edges="-E12 E11"/>
    </vehicle>
</routes>
