<?xml version="1.0" encoding="UTF-8"?>

<!-- generated on 2024-04-11 18:00:14 by Eclipse SUMO netedit Version 1.19.0
<configuration xmlns:xsi="http://www.w3.org/2001/XMLSchema-instance" xsi:noNamespaceSchemaLocation="http://sumo.dlr.de/xsd/neteditConfiguration.xsd">

    <input>
        <sumo-net-file value="C:\Users\sioldead\OneDrive - McMaster University\Research\Python\NN\Data\Test2\SmallGrid.net.xml"/>
    </input>

    <output>
        <output-file value="C:\Users\sioldead\OneDrive - McMaster University\Research\Python\NN\Data\Test2\SmallGrid.net.xml"/>
    </output>

    <processing>
        <offset.disable-normalization value="true"/>
    </processing>

    <junctions>
        <no-turnarounds value="true"/>
    </junctions>

    <netedit>
        <new-network value="false"/>
    </netedit>

</configuration>
-->

<net version="1.16" junctionCornerDetail="5" limitTurnSpeed="5.50" xmlns:xsi="http://www.w3.org/2001/XMLSchema-instance" xsi:noNamespaceSchemaLocation="http://sumo.dlr.de/xsd/net_file.xsd">

    <location netOffset="0.00,0.00" convBoundary="-400.00,-300.00,1200.00,700.00" origBoundary="10000000000.00,10000000000.00,-10000000000.00,-10000000000.00" projParameter="!"/>

    <edge id=":J11_0" function="internal">
        <lane id=":J11_0_0" index="0" speed="6.51" length="9.03" shape="495.20,210.40 494.85,207.95 493.80,206.20 492.05,205.15 489.60,204.80"/>
    </edge>
    <edge id=":J11_1" function="internal">
        <lane id=":J11_1_0" index="0" speed="13.89" length="20.80" shape="495.20,210.40 495.20,189.60"/>
        <lane id=":J11_1_1" index="1" speed="13.89" length="20.80" shape="498.40,210.40 498.40,189.60"/>
    </edge>
    <edge id=":J11_3" function="internal">
        <lane id=":J11_3_0" index="0" speed="9.26" length="5.01" shape="498.40,210.40 499.11,205.44"/>
    </edge>
    <edge id=":J11_16" function="internal">
        <lane id=":J11_16_0" index="0" speed="9.26" length="14.34" shape="499.11,205.44 499.15,205.15 501.40,201.40 505.15,199.15 510.40,198.40"/>
    </edge>
    <edge id=":J11_4" function="internal">
        <lane id=":J11_4_0" index="0" speed="6.51" length="9.03" shape="510.40,204.80 507.95,205.15 506.20,206.20 505.15,207.95 504.80,210.40"/>
    </edge>
    <edge id=":J11_5" function="internal">
        <lane id=":J11_5_0" index="0" speed="13.89" length="20.80" shape="510.40,204.80 489.60,204.80"/>
        <lane id=":J11_5_1" index="1" speed="13.89" length="20.80" shape="510.40,201.60 489.60,201.60"/>
    </edge>
    <edge id=":J11_7" function="internal">
        <lane id=":J11_7_0" index="0" speed="9.26" length="5.01" shape="510.40,201.60 505.44,200.89"/>
    </edge>
    <edge id=":J11_17" function="internal">
        <lane id=":J11_17_0" index="0" speed="9.26" length="14.34" shape="505.44,200.89 505.15,200.85 501.40,198.60 499.15,194.85 498.40,189.60"/>
    </edge>
    <edge id=":J11_8" function="internal">
        <lane id=":J11_8_0" index="0" speed="6.51" length="9.03" shape="504.80,189.60 505.15,192.05 506.20,193.80 507.95,194.85 510.40,195.20"/>
    </edge>
    <edge id=":J11_9" function="internal">
        <lane id=":J11_9_0" index="0" speed="13.89" length="20.80" shape="504.80,189.60 504.80,210.40"/>
        <lane id=":J11_9_1" index="1" speed="13.89" length="20.80" shape="501.60,189.60 501.60,210.40"/>
    </edge>
    <edge id=":J11_11" function="internal">
        <lane id=":J11_11_0" index="0" speed="9.26" length="5.01" shape="501.60,189.60 500.89,194.56"/>
    </edge>
    <edge id=":J11_18" function="internal">
        <lane id=":J11_18_0" index="0" speed="9.26" length="14.34" shape="500.89,194.56 500.85,194.85 498.60,198.60 494.85,200.85 489.60,201.60"/>
    </edge>
    <edge id=":J11_12" function="internal">
        <lane id=":J11_12_0" index="0" speed="6.51" length="9.03" shape="489.60,195.20 492.05,194.85 493.80,193.80 494.85,192.05 495.20,189.60"/>
    </edge>
    <edge id=":J11_13" function="internal">
        <lane id=":J11_13_0" index="0" speed="13.89" length="20.80" shape="489.60,195.20 510.40,195.20"/>
        <lane id=":J11_13_1" index="1" speed="13.89" length="20.80" shape="489.60,198.40 510.40,198.40"/>
    </edge>
    <edge id=":J11_15" function="internal">
        <lane id=":J11_15_0" index="0" speed="9.26" length="5.01" shape="489.60,198.40 494.56,199.11"/>
    </edge>
    <edge id=":J11_19" function="internal">
        <lane id=":J11_19_0" index="0" speed="9.26" length="14.34" shape="494.56,199.11 494.85,199.15 498.60,201.40 500.85,205.15 501.60,210.40"/>
    </edge>
    <edge id=":J8_0" function="internal">
        <lane id=":J8_0_0" index="0" speed="6.51" length="9.03" shape="-104.80,210.40 -105.15,207.95 -106.20,206.20 -107.95,205.15 -110.40,204.80"/>
    </edge>
    <edge id=":J8_1" function="internal">
        <lane id=":J8_1_0" index="0" speed="13.89" length="20.80" shape="-104.80,210.40 -104.80,189.60"/>
        <lane id=":J8_1_1" index="1" speed="13.89" length="20.80" shape="-101.60,210.40 -101.60,189.60"/>
    </edge>
    <edge id=":J8_3" function="internal">
        <lane id=":J8_3_0" index="0" speed="9.26" length="5.01" shape="-101.60,210.40 -100.89,205.44"/>
    </edge>
    <edge id=":J8_16" function="internal">
        <lane id=":J8_16_0" index="0" speed="9.26" length="14.34" shape="-100.89,205.44 -100.85,205.15 -98.60,201.40 -94.85,199.15 -89.60,198.40"/>
    </edge>
    <edge id=":J8_4" function="internal">
        <lane id=":J8_4_0" index="0" speed="6.51" length="9.03" shape="-89.60,204.80 -92.05,205.15 -93.80,206.20 -94.85,207.95 -95.20,210.40"/>
    </edge>
    <edge id=":J8_5" function="internal">
        <lane id=":J8_5_0" index="0" speed="13.89" length="20.80" shape="-89.60,204.80 -110.40,204.80"/>
        <lane id=":J8_5_1" index="1" speed="13.89" length="20.80" shape="-89.60,201.60 -110.40,201.60"/>
    </edge>
    <edge id=":J8_7" function="internal">
        <lane id=":J8_7_0" index="0" speed="9.26" length="5.01" shape="-89.60,201.60 -94.56,200.89"/>
    </edge>
    <edge id=":J8_17" function="internal">
        <lane id=":J8_17_0" index="0" speed="9.26" length="14.34" shape="-94.56,200.89 -94.85,200.85 -98.60,198.60 -100.85,194.85 -101.60,189.60"/>
    </edge>
    <edge id=":J8_8" function="internal">
        <lane id=":J8_8_0" index="0" speed="6.51" length="9.03" shape="-95.20,189.60 -94.85,192.05 -93.80,193.80 -92.05,194.85 -89.60,195.20"/>
    </edge>
    <edge id=":J8_9" function="internal">
        <lane id=":J8_9_0" index="0" speed="13.89" length="20.80" shape="-95.20,189.60 -95.20,210.40"/>
        <lane id=":J8_9_1" index="1" speed="13.89" length="20.80" shape="-98.40,189.60 -98.40,210.40"/>
    </edge>
    <edge id=":J8_11" function="internal">
        <lane id=":J8_11_0" index="0" speed="9.26" length="5.01" shape="-98.40,189.60 -99.11,194.56"/>
    </edge>
    <edge id=":J8_18" function="internal">
        <lane id=":J8_18_0" index="0" speed="9.26" length="14.34" shape="-99.11,194.56 -99.15,194.85 -101.40,198.60 -105.15,200.85 -110.40,201.60"/>
    </edge>
    <edge id=":J8_12" function="internal">
        <lane id=":J8_12_0" index="0" speed="6.51" length="9.03" shape="-110.40,195.20 -107.95,194.85 -106.20,193.80 -105.15,192.05 -104.80,189.60"/>
    </edge>
    <edge id=":J8_13" function="internal">
        <lane id=":J8_13_0" index="0" speed="13.89" length="20.80" shape="-110.40,195.20 -89.60,195.20"/>
        <lane id=":J8_13_1" index="1" speed="13.89" length="20.80" shape="-110.40,198.40 -89.60,198.40"/>
    </edge>
    <edge id=":J8_15" function="internal">
        <lane id=":J8_15_0" index="0" speed="9.26" length="5.01" shape="-110.40,198.40 -105.44,199.11"/>
    </edge>
    <edge id=":J8_19" function="internal">
        <lane id=":J8_19_0" index="0" speed="9.26" length="14.34" shape="-105.44,199.11 -105.15,199.15 -101.40,201.40 -99.15,205.15 -98.40,210.40"/>
    </edge>

    <edge id="-E10" from="J12" to="J11" priority="-1">
        <lane id="-E10_0" index="0" speed="13.89" length="489.60" shape="495.20,700.00 495.20,210.40"/>
        <lane id="-E10_1" index="1" speed="13.89" length="489.60" shape="498.40,700.00 498.40,210.40"/>
    </edge>
    <edge id="-E11" from="J13" to="J11" priority="-1">
        <lane id="-E11_0" index="0" speed="13.89" length="489.60" shape="504.80,-300.00 504.80,189.60"/>
        <lane id="-E11_1" index="1" speed="13.89" length="489.60" shape="501.60,-300.00 501.60,189.60"/>
    </edge>
    <edge id="-E12" from="J14" to="J11" priority="-1">
        <lane id="-E12_0" index="0" speed="13.89" length="689.60" shape="1200.00,204.80 510.40,204.80"/>
        <lane id="-E12_1" index="1" speed="13.89" length="689.60" shape="1200.00,201.60 510.40,201.60"/>
    </edge>
    <edge id="-E6" from="J8" to="J7" priority="-1">
        <lane id="-E6_0" index="0" speed="13.89" length="289.60" shape="-110.40,204.80 -400.00,204.80"/>
        <lane id="-E6_1" index="1" speed="13.89" length="289.60" shape="-110.40,201.60 -400.00,201.60"/>
    </edge>
    <edge id="-E7" from="J9" to="J8" priority="-1">
        <lane id="-E7_0" index="0" speed="13.89" length="489.60" shape="-104.80,700.00 -104.80,210.40"/>
        <lane id="-E7_1" index="1" speed="13.89" length="489.60" shape="-101.60,700.00 -101.60,210.40"/>
    </edge>
    <edge id="-E8" from="J10" to="J8" priority="-1">
        <lane id="-E8_0" index="0" speed="13.89" length="489.60" shape="-95.20,-300.00 -95.20,189.60"/>
        <lane id="-E8_1" index="1" speed="13.89" length="489.60" shape="-98.40,-300.00 -98.40,189.60"/>
    </edge>
    <edge id="-E9" from="J11" to="J8" priority="-1">
        <lane id="-E9_0" index="0" speed="13.89" length="579.20" shape="489.60,204.80 -89.60,204.80"/>
        <lane id="-E9_1" index="1" speed="13.89" length="579.20" shape="489.60,201.60 -89.60,201.60"/>
    </edge>
    <edge id="E10" from="J11" to="J12" priority="-1">
        <lane id="E10_0" index="0" speed="13.89" length="489.60" shape="504.80,210.40 504.80,700.00"/>
        <lane id="E10_1" index="1" speed="13.89" length="489.60" shape="501.60,210.40 501.60,700.00"/>
    </edge>
    <edge id="E11" from="J11" to="J13" priority="-1">
        <lane id="E11_0" index="0" speed="13.89" length="489.60" shape="495.20,189.60 495.20,-300.00"/>
        <lane id="E11_1" index="1" speed="13.89" length="489.60" shape="498.40,189.60 498.40,-300.00"/>
    </edge>
    <edge id="E12" from="J11" to="J14" priority="-1">
        <lane id="E12_0" index="0" speed="13.89" length="689.60" shape="510.40,195.20 1200.00,195.20"/>
        <lane id="E12_1" index="1" speed="13.89" length="689.60" shape="510.40,198.40 1200.00,198.40"/>
    </edge>
    <edge id="E6" from="J7" to="J8" priority="-1">
        <lane id="E6_0" index="0" speed="13.89" length="289.60" shape="-400.00,195.20 -110.40,195.20"/>
        <lane id="E6_1" index="1" speed="13.89" length="289.60" shape="-400.00,198.40 -110.40,198.40"/>
    </edge>
    <edge id="E7" from="J8" to="J9" priority="-1">
        <lane id="E7_0" index="0" speed="13.89" length="489.60" shape="-95.20,210.40 -95.20,700.00"/>
        <lane id="E7_1" index="1" speed="13.89" length="489.60" shape="-98.40,210.40 -98.40,700.00"/>
    </edge>
    <edge id="E8" from="J8" to="J10" priority="-1">
        <lane id="E8_0" index="0" speed="13.89" length="489.60" shape="-104.80,189.60 -104.80,-300.00"/>
        <lane id="E8_1" index="1" speed="13.89" length="489.60" shape="-101.60,189.60 -101.60,-300.00"/>
    </edge>
    <edge id="E9" from="J8" to="J11" priority="-1">
        <lane id="E9_0" index="0" speed="13.89" length="579.20" shape="-89.60,195.20 489.60,195.20"/>
        <lane id="E9_1" index="1" speed="13.89" length="579.20" shape="-89.60,198.40 489.60,198.40"/>
    </edge>

    <tlLogic id="J11" type="static" programID="0" offset="0">
        <phase duration="42" state="GGGgrrrrGGGgrrrr"/>
        <phase duration="3"  state="yyyyrrrryyyyrrrr"/>
        <phase duration="42" state="rrrrGGGgrrrrGGGg"/>
        <phase duration="3"  state="rrrryyyyrrrryyyy"/>
    </tlLogic>
    <tlLogic id="J8" type="static" programID="0" offset="0">
        <phase duration="42" state="GGGgrrrrGGGgrrrr"/>
        <phase duration="3"  state="yyyyrrrryyyyrrrr"/>
        <phase duration="42" state="rrrrGGGgrrrrGGGg"/>
        <phase duration="3"  state="rrrryyyyrrrryyyy"/>
    </tlLogic>

    <junction id="J10" type="dead_end" x="-100.00" y="-300.00" incLanes="E8_0 E8_1" intLanes="" shape="-100.00,-300.00 -106.40,-300.00 -100.00,-300.00"/>
    <junction id="J11" type="traffic_light" x="500.00" y="200.00" incLanes="-E10_0 -E10_1 -E12_0 -E12_1 -E11_0 -E11_1 E9_0 E9_1" intLanes=":J11_0_0 :J11_1_0 :J11_1_1 :J11_16_0 :J11_4_0 :J11_5_0 :J11_5_1 :J11_17_0 :J11_8_0 :J11_9_0 :J11_9_1 :J11_18_0 :J11_12_0 :J11_13_0 :J11_13_1 :J11_19_0" shape="493.60,210.40 506.40,210.40 506.84,208.18 507.40,207.40 508.18,206.84 509.18,206.51 510.40,206.40 510.40,193.60 508.18,193.16 507.40,192.60 506.84,191.82 506.51,190.82 506.40,189.60 493.60,189.60 493.16,191.82 492.60,192.60 491.82,193.16 490.82,193.49 489.60,193.60 489.60,206.40 491.82,206.84 492.60,207.40 493.16,208.18 493.49,209.18">
        <request index="0"  response="0000000000000000" foes="0000000001100000" cont="0"/>
        <request index="1"  response="1000000010000000" foes="1111100011100000" cont="0"/>
        <request index="2"  response="1000000010000000" foes="1111100011100000" cont="0"/>
        <request index="3"  response="1000011010000000" foes="1110011011100000" cont="1"/>
        <request index="4"  response="0000011000000000" foes="0000011000000000" cont="0"/>
        <request index="5"  response="0000111000001111" foes="1000111000001111" cont="0"/>
        <request index="6"  response="0000111000001111" foes="1000111000001111" cont="0"/>
        <request index="7"  response="0110111000001110" foes="0110111000001110" cont="1"/>
        <request index="8"  response="0000000000000000" foes="0110000000000000" cont="0"/>
        <request index="9"  response="1000000010000000" foes="1110000011111000" cont="0"/>
        <request index="10" response="1000000010000000" foes="1110000011111000" cont="0"/>
        <request index="11" response="1000000010000110" foes="1110000011100110" cont="1"/>
        <request index="12" response="0000000000000110" foes="0000000000000110" cont="0"/>
        <request index="13" response="0000111100001110" foes="0000111110001110" cont="0"/>
        <request index="14" response="0000111100001110" foes="0000111110001110" cont="0"/>
        <request index="15" response="0000111001101110" foes="0000111001101110" cont="1"/>
    </junction>
    <junction id="J12" type="dead_end" x="500.00" y="700.00" incLanes="E10_0 E10_1" intLanes="" shape="500.00,700.00 506.40,700.00 500.00,700.00"/>
    <junction id="J13" type="dead_end" x="500.00" y="-300.00" incLanes="E11_0 E11_1" intLanes="" shape="500.00,-300.00 493.60,-300.00 500.00,-300.00"/>
    <junction id="J14" type="dead_end" x="1200.00" y="200.00" incLanes="E12_0 E12_1" intLanes="" shape="1200.00,200.00 1200.00,193.60 1200.00,200.00"/>
    <junction id="J7" type="dead_end" x="-400.00" y="200.00" incLanes="-E6_0 -E6_1" intLanes="" shape="-400.00,200.00 -400.00,206.40 -400.00,200.00"/>
    <junction id="J8" type="traffic_light" x="-100.00" y="200.00" incLanes="-E7_0 -E7_1 -E9_0 -E9_1 -E8_0 -E8_1 E6_0 E6_1" intLanes=":J8_0_0 :J8_1_0 :J8_1_1 :J8_16_0 :J8_4_0 :J8_5_0 :J8_5_1 :J8_17_0 :J8_8_0 :J8_9_0 :J8_9_1 :J8_18_0 :J8_12_0 :J8_13_0 :J8_13_1 :J8_19_0" shape="-106.40,210.40 -93.60,210.40 -93.16,208.18 -92.60,207.40 -91.82,206.84 -90.82,206.51 -89.60,206.40 -89.60,193.60 -91.82,193.16 -92.60,192.60 -93.16,191.82 -93.49,190.82 -93.60,189.60 -106.40,189.60 -106.84,191.82 -107.40,192.60 -108.18,193.16 -109.18,193.49 -110.40,193.60 -110.40,206.40 -108.18,206.84 -107.40,207.40 -106.84,208.18 -106.51,209.18">
        <request index="0"  response="0000000000000000" foes="0000000001100000" cont="0"/>
        <request index="1"  response="1000000010000000" foes="1111100011100000" cont="0"/>
        <request index="2"  response="1000000010000000" foes="1111100011100000" cont="0"/>
        <request index="3"  response="1000011010000000" foes="1110011011100000" cont="1"/>
        <request index="4"  response="0000011000000000" foes="0000011000000000" cont="0"/>
        <request index="5"  response="0000111000001111" foes="1000111000001111" cont="0"/>
        <request index="6"  response="0000111000001111" foes="1000111000001111" cont="0"/>
        <request index="7"  response="0110111000001110" foes="0110111000001110" cont="1"/>
        <request index="8"  response="0000000000000000" foes="0110000000000000" cont="0"/>
        <request index="9"  response="1000000010000000" foes="1110000011111000" cont="0"/>
        <request index="10" response="1000000010000000" foes="1110000011111000" cont="0"/>
        <request index="11" response="1000000010000110" foes="1110000011100110" cont="1"/>
        <request index="12" response="0000000000000110" foes="0000000000000110" cont="0"/>
        <request index="13" response="0000111100001110" foes="0000111110001110" cont="0"/>
        <request index="14" response="0000111100001110" foes="0000111110001110" cont="0"/>
        <request index="15" response="0000111001101110" foes="0000111001101110" cont="1"/>
    </junction>
    <junction id="J9" type="dead_end" x="-100.00" y="700.00" incLanes="E7_0 E7_1" intLanes="" shape="-100.00,700.00 -93.60,700.00 -100.00,700.00"/>

    <junction id=":J11_16_0" type="internal" x="499.11" y="205.44" incLanes=":J11_3_0 -E11_0 -E11_1" intLanes=":J11_5_0 :J11_5_1 :J11_7_0 :J11_8_0 :J11_9_0 :J11_9_1 :J11_13_0 :J11_13_1 :J11_15_0"/>
    <junction id=":J11_17_0" type="internal" x="505.44" y="200.89" incLanes=":J11_7_0 E9_0 E9_1" intLanes=":J11_1_0 :J11_1_1 :J11_3_0 :J11_9_0 :J11_9_1 :J11_11_0 :J11_12_0 :J11_13_0 :J11_13_1"/>
    <junction id=":J11_18_0" type="internal" x="500.89" y="194.56" incLanes=":J11_11_0 -E10_0 -E10_1" intLanes=":J11_0_0 :J11_1_0 :J11_1_1 :J11_5_0 :J11_5_1 :J11_7_0 :J11_13_0 :J11_13_1 :J11_15_0"/>
    <junction id=":J11_19_0" type="internal" x="494.56" y="199.11" incLanes=":J11_15_0 -E12_0 -E12_1" intLanes=":J11_1_0 :J11_1_1 :J11_3_0 :J11_4_0 :J11_5_0 :J11_5_1 :J11_9_0 :J11_9_1 :J11_11_0"/>
    <junction id=":J8_16_0" type="internal" x="-100.89" y="205.44" incLanes=":J8_3_0 -E8_0 -E8_1" intLanes=":J8_5_0 :J8_5_1 :J8_7_0 :J8_8_0 :J8_9_0 :J8_9_1 :J8_13_0 :J8_13_1 :J8_15_0"/>
    <junction id=":J8_17_0" type="internal" x="-94.56" y="200.89" incLanes=":J8_7_0 E6_0 E6_1" intLanes=":J8_1_0 :J8_1_1 :J8_3_0 :J8_9_0 :J8_9_1 :J8_11_0 :J8_12_0 :J8_13_0 :J8_13_1"/>
    <junction id=":J8_18_0" type="internal" x="-99.11" y="194.56" incLanes=":J8_11_0 -E7_0 -E7_1" intLanes=":J8_0_0 :J8_1_0 :J8_1_1 :J8_5_0 :J8_5_1 :J8_7_0 :J8_13_0 :J8_13_1 :J8_15_0"/>
    <junction id=":J8_19_0" type="internal" x="-105.44" y="199.11" incLanes=":J8_15_0 -E9_0 -E9_1" intLanes=":J8_1_0 :J8_1_1 :J8_3_0 :J8_4_0 :J8_5_0 :J8_5_1 :J8_9_0 :J8_9_1 :J8_11_0"/>

    <connection from="-E10" to="-E9" fromLane="0" toLane="0" via=":J11_0_0" tl="J11" linkIndex="0" dir="r" state="O"/>
    <connection from="-E10" to="E11" fromLane="0" toLane="0" via=":J11_1_0" tl="J11" linkIndex="1" dir="s" state="O"/>
    <connection from="-E10" to="E11" fromLane="1" toLane="1" via=":J11_1_1" tl="J11" linkIndex="2" dir="s" state="O"/>
    <connection from="-E10" to="E12" fromLane="1" toLane="1" via=":J11_3_0" tl="J11" linkIndex="3" dir="l" state="o"/>
    <connection from="-E11" to="E12" fromLane="0" toLane="0" via=":J11_8_0" tl="J11" linkIndex="8" dir="r" state="O"/>
    <connection from="-E11" to="E10" fromLane="0" toLane="0" via=":J11_9_0" tl="J11" linkIndex="9" dir="s" state="O"/>
    <connection from="-E11" to="E10" fromLane="1" toLane="1" via=":J11_9_1" tl="J11" linkIndex="10" dir="s" state="O"/>
    <connection from="-E11" to="-E9" fromLane="1" toLane="1" via=":J11_11_0" tl="J11" linkIndex="11" dir="l" state="o"/>
    <connection from="-E12" to="E10" fromLane="0" toLane="0" via=":J11_4_0" tl="J11" linkIndex="4" dir="r" state="o"/>
    <connection from="-E12" to="-E9" fromLane="0" toLane="0" via=":J11_5_0" tl="J11" linkIndex="5" dir="s" state="o"/>
    <connection from="-E12" to="-E9" fromLane="1" toLane="1" via=":J11_5_1" tl="J11" linkIndex="6" dir="s" state="o"/>
    <connection from="-E12" to="E11" fromLane="1" toLane="1" via=":J11_7_0" tl="J11" linkIndex="7" dir="l" state="o"/>
    <connection from="-E7" to="-E6" fromLane="0" toLane="0" via=":J8_0_0" tl="J8" linkIndex="0" dir="r" state="O"/>
    <connection from="-E7" to="E8" fromLane="0" toLane="0" via=":J8_1_0" tl="J8" linkIndex="1" dir="s" state="O"/>
    <connection from="-E7" to="E8" fromLane="1" toLane="1" via=":J8_1_1" tl="J8" linkIndex="2" dir="s" state="O"/>
    <connection from="-E7" to="E9" fromLane="1" toLane="1" via=":J8_3_0" tl="J8" linkIndex="3" dir="l" state="o"/>
    <connection from="-E8" to="E9" fromLane="0" toLane="0" via=":J8_8_0" tl="J8" linkIndex="8" dir="r" state="O"/>
    <connection from="-E8" to="E7" fromLane="0" toLane="0" via=":J8_9_0" tl="J8" linkIndex="9" dir="s" state="O"/>
    <connection from="-E8" to="E7" fromLane="1" toLane="1" via=":J8_9_1" tl="J8" linkIndex="10" dir="s" state="O"/>
    <connection from="-E8" to="-E6" fromLane="1" toLane="1" via=":J8_11_0" tl="J8" linkIndex="11" dir="l" state="o"/>
    <connection from="-E9" to="E7" fromLane="0" toLane="0" via=":J8_4_0" tl="J8" linkIndex="4" dir="r" state="o"/>
    <connection from="-E9" to="-E6" fromLane="0" toLane="0" via=":J8_5_0" tl="J8" linkIndex="5" dir="s" state="o"/>
    <connection from="-E9" to="-E6" fromLane="1" toLane="1" via=":J8_5_1" tl="J8" linkIndex="6" dir="s" state="o"/>
    <connection from="-E9" to="E8" fromLane="1" toLane="1" via=":J8_7_0" tl="J8" linkIndex="7" dir="l" state="o"/>
    <connection from="E6" to="E8" fromLane="0" toLane="0" via=":J8_12_0" tl="J8" linkIndex="12" dir="r" state="o"/>
    <connection from="E6" to="E9" fromLane="0" toLane="0" via=":J8_13_0" tl="J8" linkIndex="13" dir="s" state="o"/>
    <connection from="E6" to="E9" fromLane="1" toLane="1" via=":J8_13_1" tl="J8" linkIndex="14" dir="s" state="o"/>
    <connection from="E6" to="E7" fromLane="1" toLane="1" via=":J8_15_0" tl="J8" linkIndex="15" dir="l" state="o"/>
    <connection from="E9" to="E11" fromLane="0" toLane="0" via=":J11_12_0" tl="J11" linkIndex="12" dir="r" state="o"/>
    <connection from="E9" to="E12" fromLane="0" toLane="0" via=":J11_13_0" tl="J11" linkIndex="13" dir="s" state="o"/>
    <connection from="E9" to="E12" fromLane="1" toLane="1" via=":J11_13_1" tl="J11" linkIndex="14" dir="s" state="o"/>
    <connection from="E9" to="E10" fromLane="1" toLane="1" via=":J11_15_0" tl="J11" linkIndex="15" dir="l" state="o"/>

    <connection from=":J11_0" to="-E9" fromLane="0" toLane="0" dir="r" state="M"/>
    <connection from=":J11_1" to="E11" fromLane="0" toLane="0" dir="s" state="M"/>
    <connection from=":J11_1" to="E11" fromLane="1" toLane="1" dir="s" state="M"/>
    <connection from=":J11_3" to="E12" fromLane="0" toLane="1" via=":J11_16_0" dir="l" state="m"/>
    <connection from=":J11_16" to="E12" fromLane="0" toLane="1" dir="l" state="M"/>
    <connection from=":J11_4" to="E10" fromLane="0" toLane="0" dir="r" state="M"/>
    <connection from=":J11_5" to="-E9" fromLane="0" toLane="0" dir="s" state="M"/>
    <connection from=":J11_5" to="-E9" fromLane="1" toLane="1" dir="s" state="M"/>
    <connection from=":J11_7" to="E11" fromLane="0" toLane="1" via=":J11_17_0" dir="l" state="m"/>
    <connection from=":J11_17" to="E11" fromLane="0" toLane="1" dir="l" state="M"/>
    <connection from=":J11_8" to="E12" fromLane="0" toLane="0" dir="r" state="M"/>
    <connection from=":J11_9" to="E10" fromLane="0" toLane="0" dir="s" state="M"/>
    <connection from=":J11_9" to="E10" fromLane="1" toLane="1" dir="s" state="M"/>
    <connection from=":J11_11" to="-E9" fromLane="0" toLane="1" via=":J11_18_0" dir="l" state="m"/>
    <connection from=":J11_18" to="-E9" fromLane="0" toLane="1" dir="l" state="M"/>
    <connection from=":J11_12" to="E11" fromLane="0" toLane="0" dir="r" state="M"/>
    <connection from=":J11_13" to="E12" fromLane="0" toLane="0" dir="s" state="M"/>
    <connection from=":J11_13" to="E12" fromLane="1" toLane="1" dir="s" state="M"/>
    <connection from=":J11_15" to="E10" fromLane="0" toLane="1" via=":J11_19_0" dir="l" state="m"/>
    <connection from=":J11_19" to="E10" fromLane="0" toLane="1" dir="l" state="M"/>
    <connection from=":J8_0" to="-E6" fromLane="0" toLane="0" dir="r" state="M"/>
    <connection from=":J8_1" to="E8" fromLane="0" toLane="0" dir="s" state="M"/>
    <connection from=":J8_1" to="E8" fromLane="1" toLane="1" dir="s" state="M"/>
    <connection from=":J8_3" to="E9" fromLane="0" toLane="1" via=":J8_16_0" dir="l" state="m"/>
    <connection from=":J8_16" to="E9" fromLane="0" toLane="1" dir="l" state="M"/>
    <connection from=":J8_4" to="E7" fromLane="0" toLane="0" dir="r" state="M"/>
    <connection from=":J8_5" to="-E6" fromLane="0" toLane="0" dir="s" state="M"/>
    <connection from=":J8_5" to="-E6" fromLane="1" toLane="1" dir="s" state="M"/>
    <connection from=":J8_7" to="E8" fromLane="0" toLane="1" via=":J8_17_0" dir="l" state="m"/>
    <connection from=":J8_17" to="E8" fromLane="0" toLane="1" dir="l" state="M"/>
    <connection from=":J8_8" to="E9" fromLane="0" toLane="0" dir="r" state="M"/>
    <connection from=":J8_9" to="E7" fromLane="0" toLane="0" dir="s" state="M"/>
    <connection from=":J8_9" to="E7" fromLane="1" toLane="1" dir="s" state="M"/>
    <connection from=":J8_11" to="-E6" fromLane="0" toLane="1" via=":J8_18_0" dir="l" state="m"/>
    <connection from=":J8_18" to="-E6" fromLane="0" toLane="1" dir="l" state="M"/>
    <connection from=":J8_12" to="E8" fromLane="0" toLane="0" dir="r" state="M"/>
    <connection from=":J8_13" to="E9" fromLane="0" toLane="0" dir="s" state="M"/>
    <connection from=":J8_13" to="E9" fromLane="1" toLane="1" dir="s" state="M"/>
    <connection from=":J8_15" to="E7" fromLane="0" toLane="1" via=":J8_19_0" dir="l" state="m"/>
    <connection from=":J8_19" to="E7" fromLane="0" toLane="1" dir="l" state="M"/>

</net>
