<?xml version="1.0" encoding="UTF-8"?>

<!-- generated on 2024-04-30 18:41:07 by Eclipse SUMO sumo Version 1.19.0
-->

<configuration xmlns:xsi="http://www.w3.org/2001/XMLSchema-instance" xsi:noNamespaceSchemaLocation="http://sumo.dlr.de/xsd/sumoConfiguration.xsd">

    <input>
        <net-file value="BigGridTest.net.xml" synonymes="n net" type="FILE" help="Load road network description from FILE"/>
        <route-files value="BigGridTest.rou.xml" synonymes="r routes" type="FILE" help="Load routes descriptions from FILE(s)"/>
    </input>

    <output>
        <queue-output value="" type="FILE" help="Save the vehicle queues at the junctions (experimental)"/>
    </output>

    <time>
        <begin value="0" synonymes="b" type="TIME" help="Defines the begin time in seconds; The simulation starts at this time"/>
        <end value="800" synonymes="e" type="TIME" help="Defines the end time in seconds; The simulation ends at this time"/>
    </time>

    <report>
        <verbose value="true" synonymes="v" type="BOOL" help="Switches to verbose output"/>
        <no-step-log value="true" type="BOOL" help="Disable console output of current simulation step"/>
    </report>

</configuration>
