<?xml version="1.0" encoding="UTF-8"?>

<!-- generated on 2024-04-30 18:26:05 by Eclipse SUMO netedit Version 1.19.0
<configuration xmlns:xsi="http://www.w3.org/2001/XMLSchema-instance" xsi:noNamespaceSchemaLocation="http://sumo.dlr.de/xsd/neteditConfiguration.xsd">

    <input>
        <sumo-net-file value="C:\Users\sioldead\OneDrive - McMaster University\Research\Python\NN\Data\Test4\BigGridTest.net.xml"/>
    </input>

    <output>
        <output-file value="C:\Users\sioldead\OneDrive - McMaster University\Research\Python\NN\Data\Test4\BigGridTest.net.xml"/>
    </output>

    <processing>
        <offset.disable-normalization value="true"/>
    </processing>

    <junctions>
        <no-turnarounds value="true"/>
    </junctions>

    <netedit>
        <new-network value="false"/>
    </netedit>

</configuration>
-->

<net version="1.16" junctionCornerDetail="5" limitTurnSpeed="5.50" xmlns:xsi="http://www.w3.org/2001/XMLSchema-instance" xsi:noNamespaceSchemaLocation="http://sumo.dlr.de/xsd/net_file.xsd">

    <location netOffset="0.00,0.00" convBoundary="-100.00,-1600.00,4700.00,1200.00" origBoundary="10000000000.00,10000000000.00,-10000000000.00,-10000000000.00" projParameter="!"/>

    <edge id=":J1_0" function="internal">
        <lane id=":J1_0_0" index="0" speed="6.51" length="9.03" shape="95.20,10.40 94.85,7.95 93.80,6.20 92.05,5.15 89.60,4.80"/>
    </edge>
    <edge id=":J1_1" function="internal">
        <lane id=":J1_1_0" index="0" speed="13.89" length="20.80" shape="95.20,10.40 95.20,-10.40"/>
        <lane id=":J1_1_1" index="1" speed="13.89" length="20.80" shape="98.40,10.40 98.40,-10.40"/>
    </edge>
    <edge id=":J1_3" function="internal">
        <lane id=":J1_3_0" index="0" speed="9.26" length="5.01" shape="98.40,10.40 99.11,5.44"/>
    </edge>
    <edge id=":J1_16" function="internal">
        <lane id=":J1_16_0" index="0" speed="9.26" length="14.34" shape="99.11,5.44 99.15,5.15 101.40,1.40 105.15,-0.85 110.40,-1.60"/>
    </edge>
    <edge id=":J1_4" function="internal">
        <lane id=":J1_4_0" index="0" speed="6.51" length="9.03" shape="110.40,4.80 107.95,5.15 106.20,6.20 105.15,7.95 104.80,10.40"/>
    </edge>
    <edge id=":J1_5" function="internal">
        <lane id=":J1_5_0" index="0" speed="13.89" length="20.80" shape="110.40,4.80 89.60,4.80"/>
        <lane id=":J1_5_1" index="1" speed="13.89" length="20.80" shape="110.40,1.60 89.60,1.60"/>
    </edge>
    <edge id=":J1_7" function="internal">
        <lane id=":J1_7_0" index="0" speed="9.26" length="5.01" shape="110.40,1.60 105.44,0.89"/>
    </edge>
    <edge id=":J1_17" function="internal">
        <lane id=":J1_17_0" index="0" speed="9.26" length="14.34" shape="105.44,0.89 105.15,0.85 101.40,-1.40 99.15,-5.15 98.40,-10.40"/>
    </edge>
    <edge id=":J1_8" function="internal">
        <lane id=":J1_8_0" index="0" speed="6.51" length="9.03" shape="104.80,-10.40 105.15,-7.95 106.20,-6.20 107.95,-5.15 110.40,-4.80"/>
    </edge>
    <edge id=":J1_9" function="internal">
        <lane id=":J1_9_0" index="0" speed="13.89" length="20.80" shape="104.80,-10.40 104.80,10.40"/>
        <lane id=":J1_9_1" index="1" speed="13.89" length="20.80" shape="101.60,-10.40 101.60,10.40"/>
    </edge>
    <edge id=":J1_11" function="internal">
        <lane id=":J1_11_0" index="0" speed="9.26" length="5.01" shape="101.60,-10.40 100.89,-5.44"/>
    </edge>
    <edge id=":J1_18" function="internal">
        <lane id=":J1_18_0" index="0" speed="9.26" length="14.34" shape="100.89,-5.44 100.85,-5.15 98.60,-1.40 94.85,0.85 89.60,1.60"/>
    </edge>
    <edge id=":J1_12" function="internal">
        <lane id=":J1_12_0" index="0" speed="6.51" length="9.03" shape="89.60,-4.80 92.05,-5.15 93.80,-6.20 94.85,-7.95 95.20,-10.40"/>
    </edge>
    <edge id=":J1_13" function="internal">
        <lane id=":J1_13_0" index="0" speed="13.89" length="20.80" shape="89.60,-4.80 110.40,-4.80"/>
        <lane id=":J1_13_1" index="1" speed="13.89" length="20.80" shape="89.60,-1.60 110.40,-1.60"/>
    </edge>
    <edge id=":J1_15" function="internal">
        <lane id=":J1_15_0" index="0" speed="9.26" length="5.01" shape="89.60,-1.60 94.56,-0.89"/>
    </edge>
    <edge id=":J1_19" function="internal">
        <lane id=":J1_19_0" index="0" speed="9.26" length="14.34" shape="94.56,-0.89 94.85,-0.85 98.60,1.40 100.85,5.15 101.60,10.40"/>
    </edge>
    <edge id=":J10_0" function="internal">
        <lane id=":J10_0_0" index="0" speed="6.51" length="9.03" shape="3895.20,10.40 3894.85,7.95 3893.80,6.20 3892.05,5.15 3889.60,4.80"/>
    </edge>
    <edge id=":J10_1" function="internal">
        <lane id=":J10_1_0" index="0" speed="13.89" length="20.80" shape="3895.20,10.40 3895.20,-10.40"/>
        <lane id=":J10_1_1" index="1" speed="13.89" length="20.80" shape="3898.40,10.40 3898.40,-10.40"/>
    </edge>
    <edge id=":J10_3" function="internal">
        <lane id=":J10_3_0" index="0" speed="13.89" length="20.80" shape="3904.80,-10.40 3904.80,10.40"/>
        <lane id=":J10_3_1" index="1" speed="13.89" length="20.80" shape="3901.60,-10.40 3901.60,10.40"/>
    </edge>
    <edge id=":J10_5" function="internal">
        <lane id=":J10_5_0" index="0" speed="9.26" length="5.01" shape="3901.60,-10.40 3900.89,-5.44"/>
    </edge>
    <edge id=":J10_8" function="internal">
        <lane id=":J10_8_0" index="0" speed="9.26" length="14.34" shape="3900.89,-5.44 3900.85,-5.15 3898.60,-1.40 3894.85,0.85 3889.60,1.60"/>
    </edge>
    <edge id=":J10_6" function="internal">
        <lane id=":J10_6_0" index="0" speed="6.51" length="9.03" shape="3889.60,-4.80 3892.05,-5.15 3893.80,-6.20 3894.85,-7.95 3895.20,-10.40"/>
    </edge>
    <edge id=":J10_7" function="internal">
        <lane id=":J10_7_0" index="0" speed="9.26" length="19.35" shape="3889.60,-1.60 3894.85,-0.85 3898.60,1.40 3900.85,5.15 3901.60,10.40"/>
    </edge>
    <edge id=":J11_0" function="internal">
        <lane id=":J11_0_0" index="0" speed="13.89" length="20.80" shape="3895.20,410.40 3895.20,389.60"/>
        <lane id=":J11_0_1" index="1" speed="13.89" length="20.80" shape="3898.40,410.40 3898.40,389.60"/>
    </edge>
    <edge id=":J11_2" function="internal">
        <lane id=":J11_2_0" index="0" speed="9.26" length="5.01" shape="3898.40,410.40 3899.11,405.44"/>
    </edge>
    <edge id=":J11_8" function="internal">
        <lane id=":J11_8_0" index="0" speed="9.26" length="14.34" shape="3899.11,405.44 3899.15,405.15 3901.40,401.40 3905.15,399.15 3910.40,398.40"/>
    </edge>
    <edge id=":J11_3" function="internal">
        <lane id=":J11_3_0" index="0" speed="6.51" length="9.03" shape="3910.40,404.80 3907.95,405.15 3906.20,406.20 3905.15,407.95 3904.80,410.40"/>
    </edge>
    <edge id=":J11_4" function="internal">
        <lane id=":J11_4_0" index="0" speed="9.26" length="19.35" shape="3910.40,401.60 3905.15,400.85 3901.40,398.60 3899.15,394.85 3898.40,389.60"/>
    </edge>
    <edge id=":J11_5" function="internal">
        <lane id=":J11_5_0" index="0" speed="6.51" length="9.03" shape="3904.80,389.60 3905.15,392.05 3906.20,393.80 3907.95,394.85 3910.40,395.20"/>
    </edge>
    <edge id=":J11_6" function="internal">
        <lane id=":J11_6_0" index="0" speed="13.89" length="20.80" shape="3904.80,389.60 3904.80,410.40"/>
        <lane id=":J11_6_1" index="1" speed="13.89" length="20.80" shape="3901.60,389.60 3901.60,410.40"/>
    </edge>
    <edge id=":J14_0" function="internal">
        <lane id=":J14_0_0" index="0" speed="6.51" length="9.03" shape="3895.20,-889.60 3894.85,-892.05 3893.80,-893.80 3892.05,-894.85 3889.60,-895.20"/>
    </edge>
    <edge id=":J14_1" function="internal">
        <lane id=":J14_1_0" index="0" speed="13.89" length="20.80" shape="3895.20,-889.60 3895.20,-910.40"/>
        <lane id=":J14_1_1" index="1" speed="13.89" length="20.80" shape="3898.40,-889.60 3898.40,-910.40"/>
    </edge>
    <edge id=":J14_3" function="internal">
        <lane id=":J14_3_0" index="0" speed="13.89" length="20.80" shape="3904.80,-910.40 3904.80,-889.60"/>
        <lane id=":J14_3_1" index="1" speed="13.89" length="20.80" shape="3901.60,-910.40 3901.60,-889.60"/>
    </edge>
    <edge id=":J14_5" function="internal">
        <lane id=":J14_5_0" index="0" speed="9.26" length="5.01" shape="3901.60,-910.40 3900.89,-905.44"/>
    </edge>
    <edge id=":J14_8" function="internal">
        <lane id=":J14_8_0" index="0" speed="9.26" length="14.34" shape="3900.89,-905.44 3900.85,-905.15 3898.60,-901.40 3894.85,-899.15 3889.60,-898.40"/>
    </edge>
    <edge id=":J14_6" function="internal">
        <lane id=":J14_6_0" index="0" speed="6.51" length="9.03" shape="3889.60,-904.80 3892.05,-905.15 3893.80,-906.20 3894.85,-907.95 3895.20,-910.40"/>
    </edge>
    <edge id=":J14_7" function="internal">
        <lane id=":J14_7_0" index="0" speed="9.26" length="19.35" shape="3889.60,-901.60 3894.85,-900.85 3898.60,-898.60 3900.85,-894.85 3901.60,-889.60"/>
    </edge>
    <edge id=":J4_0" function="internal">
        <lane id=":J4_0_0" index="0" speed="6.51" length="9.03" shape="1195.20,10.40 1194.85,7.95 1193.80,6.20 1192.05,5.15 1189.60,4.80"/>
    </edge>
    <edge id=":J4_1" function="internal">
        <lane id=":J4_1_0" index="0" speed="13.89" length="20.80" shape="1195.20,10.40 1195.20,-10.40"/>
        <lane id=":J4_1_1" index="1" speed="13.89" length="20.80" shape="1198.40,10.40 1198.40,-10.40"/>
    </edge>
    <edge id=":J4_3" function="internal">
        <lane id=":J4_3_0" index="0" speed="9.26" length="5.01" shape="1198.40,10.40 1199.11,5.44"/>
    </edge>
    <edge id=":J4_16" function="internal">
        <lane id=":J4_16_0" index="0" speed="9.26" length="14.34" shape="1199.11,5.44 1199.15,5.15 1201.40,1.40 1205.15,-0.85 1210.40,-1.60"/>
    </edge>
    <edge id=":J4_4" function="internal">
        <lane id=":J4_4_0" index="0" speed="6.51" length="9.03" shape="1210.40,4.80 1207.95,5.15 1206.20,6.20 1205.15,7.95 1204.80,10.40"/>
    </edge>
    <edge id=":J4_5" function="internal">
        <lane id=":J4_5_0" index="0" speed="13.89" length="20.80" shape="1210.40,4.80 1189.60,4.80"/>
        <lane id=":J4_5_1" index="1" speed="13.89" length="20.80" shape="1210.40,1.60 1189.60,1.60"/>
    </edge>
    <edge id=":J4_7" function="internal">
        <lane id=":J4_7_0" index="0" speed="9.26" length="5.01" shape="1210.40,1.60 1205.44,0.89"/>
    </edge>
    <edge id=":J4_17" function="internal">
        <lane id=":J4_17_0" index="0" speed="9.26" length="14.34" shape="1205.44,0.89 1205.15,0.85 1201.40,-1.40 1199.15,-5.15 1198.40,-10.40"/>
    </edge>
    <edge id=":J4_8" function="internal">
        <lane id=":J4_8_0" index="0" speed="6.51" length="9.03" shape="1204.80,-10.40 1205.15,-7.95 1206.20,-6.20 1207.95,-5.15 1210.40,-4.80"/>
    </edge>
    <edge id=":J4_9" function="internal">
        <lane id=":J4_9_0" index="0" speed="13.89" length="20.80" shape="1204.80,-10.40 1204.80,10.40"/>
        <lane id=":J4_9_1" index="1" speed="13.89" length="20.80" shape="1201.60,-10.40 1201.60,10.40"/>
    </edge>
    <edge id=":J4_11" function="internal">
        <lane id=":J4_11_0" index="0" speed="9.26" length="5.01" shape="1201.60,-10.40 1200.89,-5.44"/>
    </edge>
    <edge id=":J4_18" function="internal">
        <lane id=":J4_18_0" index="0" speed="9.26" length="14.34" shape="1200.89,-5.44 1200.85,-5.15 1198.60,-1.40 1194.85,0.85 1189.60,1.60"/>
    </edge>
    <edge id=":J4_12" function="internal">
        <lane id=":J4_12_0" index="0" speed="6.51" length="9.03" shape="1189.60,-4.80 1192.05,-5.15 1193.80,-6.20 1194.85,-7.95 1195.20,-10.40"/>
    </edge>
    <edge id=":J4_13" function="internal">
        <lane id=":J4_13_0" index="0" speed="13.89" length="20.80" shape="1189.60,-4.80 1210.40,-4.80"/>
        <lane id=":J4_13_1" index="1" speed="13.89" length="20.80" shape="1189.60,-1.60 1210.40,-1.60"/>
    </edge>
    <edge id=":J4_15" function="internal">
        <lane id=":J4_15_0" index="0" speed="9.26" length="5.01" shape="1189.60,-1.60 1194.56,-0.89"/>
    </edge>
    <edge id=":J4_19" function="internal">
        <lane id=":J4_19_0" index="0" speed="9.26" length="14.34" shape="1194.56,-0.89 1194.85,-0.85 1198.60,1.40 1200.85,5.15 1201.60,10.40"/>
    </edge>
    <edge id=":J6_0" function="internal">
        <lane id=":J6_0_0" index="0" speed="13.89" length="20.80" shape="1195.20,-889.60 1195.20,-910.40"/>
        <lane id=":J6_0_1" index="1" speed="13.89" length="20.80" shape="1198.40,-889.60 1198.40,-910.40"/>
    </edge>
    <edge id=":J6_2" function="internal">
        <lane id=":J6_2_0" index="0" speed="9.26" length="5.01" shape="1198.40,-889.60 1199.11,-894.56"/>
    </edge>
    <edge id=":J6_8" function="internal">
        <lane id=":J6_8_0" index="0" speed="9.26" length="14.34" shape="1199.11,-894.56 1199.15,-894.85 1201.40,-898.60 1205.15,-900.85 1210.40,-901.60"/>
    </edge>
    <edge id=":J6_3" function="internal">
        <lane id=":J6_3_0" index="0" speed="6.51" length="9.03" shape="1210.40,-895.20 1207.95,-894.85 1206.20,-893.80 1205.15,-892.05 1204.80,-889.60"/>
    </edge>
    <edge id=":J6_4" function="internal">
        <lane id=":J6_4_0" index="0" speed="9.26" length="19.35" shape="1210.40,-898.40 1205.15,-899.15 1201.40,-901.40 1199.15,-905.15 1198.40,-910.40"/>
    </edge>
    <edge id=":J6_5" function="internal">
        <lane id=":J6_5_0" index="0" speed="6.51" length="9.03" shape="1204.80,-910.40 1205.15,-907.95 1206.20,-906.20 1207.95,-905.15 1210.40,-904.80"/>
    </edge>
    <edge id=":J6_6" function="internal">
        <lane id=":J6_6_0" index="0" speed="13.89" length="20.80" shape="1204.80,-910.40 1204.80,-889.60"/>
        <lane id=":J6_6_1" index="1" speed="13.89" length="20.80" shape="1201.60,-910.40 1201.60,-889.60"/>
    </edge>
    <edge id=":J7_0" function="internal">
        <lane id=":J7_0_0" index="0" speed="6.51" length="9.03" shape="3095.20,10.40 3094.85,7.95 3093.80,6.20 3092.05,5.15 3089.60,4.80"/>
    </edge>
    <edge id=":J7_1" function="internal">
        <lane id=":J7_1_0" index="0" speed="13.89" length="20.80" shape="3095.20,10.40 3095.20,-10.40"/>
        <lane id=":J7_1_1" index="1" speed="13.89" length="20.80" shape="3098.40,10.40 3098.40,-10.40"/>
    </edge>
    <edge id=":J7_3" function="internal">
        <lane id=":J7_3_0" index="0" speed="9.26" length="5.01" shape="3098.40,10.40 3099.11,5.44"/>
    </edge>
    <edge id=":J7_16" function="internal">
        <lane id=":J7_16_0" index="0" speed="9.26" length="14.34" shape="3099.11,5.44 3099.15,5.15 3101.40,1.40 3105.15,-0.85 3110.40,-1.60"/>
    </edge>
    <edge id=":J7_4" function="internal">
        <lane id=":J7_4_0" index="0" speed="6.51" length="9.03" shape="3110.40,4.80 3107.95,5.15 3106.20,6.20 3105.15,7.95 3104.80,10.40"/>
    </edge>
    <edge id=":J7_5" function="internal">
        <lane id=":J7_5_0" index="0" speed="13.89" length="20.80" shape="3110.40,4.80 3089.60,4.80"/>
        <lane id=":J7_5_1" index="1" speed="13.89" length="20.80" shape="3110.40,1.60 3089.60,1.60"/>
    </edge>
    <edge id=":J7_7" function="internal">
        <lane id=":J7_7_0" index="0" speed="9.26" length="5.01" shape="3110.40,1.60 3105.44,0.89"/>
    </edge>
    <edge id=":J7_17" function="internal">
        <lane id=":J7_17_0" index="0" speed="9.26" length="14.34" shape="3105.44,0.89 3105.15,0.85 3101.40,-1.40 3099.15,-5.15 3098.40,-10.40"/>
    </edge>
    <edge id=":J7_8" function="internal">
        <lane id=":J7_8_0" index="0" speed="6.51" length="9.03" shape="3104.80,-10.40 3105.15,-7.95 3106.20,-6.20 3107.95,-5.15 3110.40,-4.80"/>
    </edge>
    <edge id=":J7_9" function="internal">
        <lane id=":J7_9_0" index="0" speed="13.89" length="20.80" shape="3104.80,-10.40 3104.80,10.40"/>
        <lane id=":J7_9_1" index="1" speed="13.89" length="20.80" shape="3101.60,-10.40 3101.60,10.40"/>
    </edge>
    <edge id=":J7_11" function="internal">
        <lane id=":J7_11_0" index="0" speed="9.26" length="5.01" shape="3101.60,-10.40 3100.89,-5.44"/>
    </edge>
    <edge id=":J7_18" function="internal">
        <lane id=":J7_18_0" index="0" speed="9.26" length="14.34" shape="3100.89,-5.44 3100.85,-5.15 3098.60,-1.40 3094.85,0.85 3089.60,1.60"/>
    </edge>
    <edge id=":J7_12" function="internal">
        <lane id=":J7_12_0" index="0" speed="6.51" length="9.03" shape="3089.60,-4.80 3092.05,-5.15 3093.80,-6.20 3094.85,-7.95 3095.20,-10.40"/>
    </edge>
    <edge id=":J7_13" function="internal">
        <lane id=":J7_13_0" index="0" speed="13.89" length="20.80" shape="3089.60,-4.80 3110.40,-4.80"/>
        <lane id=":J7_13_1" index="1" speed="13.89" length="20.80" shape="3089.60,-1.60 3110.40,-1.60"/>
    </edge>
    <edge id=":J7_15" function="internal">
        <lane id=":J7_15_0" index="0" speed="9.26" length="5.01" shape="3089.60,-1.60 3094.56,-0.89"/>
    </edge>
    <edge id=":J7_19" function="internal">
        <lane id=":J7_19_0" index="0" speed="9.26" length="14.34" shape="3094.56,-0.89 3094.85,-0.85 3098.60,1.40 3100.85,5.15 3101.60,10.40"/>
    </edge>
    <edge id=":J9_0" function="internal">
        <lane id=":J9_0_0" index="0" speed="6.51" length="9.03" shape="3095.20,-889.60 3094.85,-892.05 3093.80,-893.80 3092.05,-894.85 3089.60,-895.20"/>
    </edge>
    <edge id=":J9_1" function="internal">
        <lane id=":J9_1_0" index="0" speed="13.89" length="20.80" shape="3095.20,-889.60 3095.20,-910.40"/>
        <lane id=":J9_1_1" index="1" speed="13.89" length="20.80" shape="3098.40,-889.60 3098.40,-910.40"/>
    </edge>
    <edge id=":J9_3" function="internal">
        <lane id=":J9_3_0" index="0" speed="9.26" length="5.01" shape="3098.40,-889.60 3099.11,-894.56"/>
    </edge>
    <edge id=":J9_16" function="internal">
        <lane id=":J9_16_0" index="0" speed="9.26" length="14.34" shape="3099.11,-894.56 3099.15,-894.85 3101.40,-898.60 3105.15,-900.85 3110.40,-901.60"/>
    </edge>
    <edge id=":J9_4" function="internal">
        <lane id=":J9_4_0" index="0" speed="6.51" length="9.03" shape="3110.40,-895.20 3107.95,-894.85 3106.20,-893.80 3105.15,-892.05 3104.80,-889.60"/>
    </edge>
    <edge id=":J9_5" function="internal">
        <lane id=":J9_5_0" index="0" speed="13.89" length="20.80" shape="3110.40,-895.20 3089.60,-895.20"/>
        <lane id=":J9_5_1" index="1" speed="13.89" length="20.80" shape="3110.40,-898.40 3089.60,-898.40"/>
    </edge>
    <edge id=":J9_7" function="internal">
        <lane id=":J9_7_0" index="0" speed="9.26" length="5.01" shape="3110.40,-898.40 3105.44,-899.11"/>
    </edge>
    <edge id=":J9_17" function="internal">
        <lane id=":J9_17_0" index="0" speed="9.26" length="14.34" shape="3105.44,-899.11 3105.15,-899.15 3101.40,-901.40 3099.15,-905.15 3098.40,-910.40"/>
    </edge>
    <edge id=":J9_8" function="internal">
        <lane id=":J9_8_0" index="0" speed="6.51" length="9.03" shape="3104.80,-910.40 3105.15,-907.95 3106.20,-906.20 3107.95,-905.15 3110.40,-904.80"/>
    </edge>
    <edge id=":J9_9" function="internal">
        <lane id=":J9_9_0" index="0" speed="13.89" length="20.80" shape="3104.80,-910.40 3104.80,-889.60"/>
        <lane id=":J9_9_1" index="1" speed="13.89" length="20.80" shape="3101.60,-910.40 3101.60,-889.60"/>
    </edge>
    <edge id=":J9_11" function="internal">
        <lane id=":J9_11_0" index="0" speed="9.26" length="5.01" shape="3101.60,-910.40 3100.89,-905.44"/>
    </edge>
    <edge id=":J9_18" function="internal">
        <lane id=":J9_18_0" index="0" speed="9.26" length="14.34" shape="3100.89,-905.44 3100.85,-905.15 3098.60,-901.40 3094.85,-899.15 3089.60,-898.40"/>
    </edge>
    <edge id=":J9_12" function="internal">
        <lane id=":J9_12_0" index="0" speed="6.51" length="9.03" shape="3089.60,-904.80 3092.05,-905.15 3093.80,-906.20 3094.85,-907.95 3095.20,-910.40"/>
    </edge>
    <edge id=":J9_13" function="internal">
        <lane id=":J9_13_0" index="0" speed="13.89" length="20.80" shape="3089.60,-904.80 3110.40,-904.80"/>
        <lane id=":J9_13_1" index="1" speed="13.89" length="20.80" shape="3089.60,-901.60 3110.40,-901.60"/>
    </edge>
    <edge id=":J9_15" function="internal">
        <lane id=":J9_15_0" index="0" speed="9.26" length="5.01" shape="3089.60,-901.60 3094.56,-900.89"/>
    </edge>
    <edge id=":J9_19" function="internal">
        <lane id=":J9_19_0" index="0" speed="9.26" length="14.34" shape="3094.56,-900.89 3094.85,-900.85 3098.60,-898.60 3100.85,-894.85 3101.60,-889.60"/>
    </edge>

    <edge id="-E0" from="J1" to="J0" priority="-1">
        <lane id="-E0_0" index="0" speed="13.89" length="189.60" shape="89.60,4.80 -100.00,4.80"/>
        <lane id="-E0_1" index="1" speed="13.89" length="189.60" shape="89.60,1.60 -100.00,1.60"/>
    </edge>
    <edge id="-E1" from="J2" to="J1" priority="-1">
        <lane id="-E1_0" index="0" speed="13.89" length="389.60" shape="95.20,400.00 95.20,10.40"/>
        <lane id="-E1_1" index="1" speed="13.89" length="389.60" shape="98.40,400.00 98.40,10.40"/>
    </edge>
    <edge id="-E10" from="J11" to="J10" priority="-1">
        <lane id="-E10_0" index="0" speed="13.89" length="379.20" shape="3895.20,389.60 3895.20,10.40"/>
        <lane id="-E10_1" index="1" speed="13.89" length="379.20" shape="3898.40,389.60 3898.40,10.40"/>
    </edge>
    <edge id="-E11" from="J12" to="J11" priority="-1">
        <lane id="-E11_0" index="0" speed="13.89" length="789.60" shape="4700.00,404.80 3910.40,404.80"/>
        <lane id="-E11_1" index="1" speed="13.89" length="789.60" shape="4700.00,401.60 3910.40,401.60"/>
    </edge>
    <edge id="-E12" from="J13" to="J11" priority="-1">
        <lane id="-E12_0" index="0" speed="13.89" length="789.60" shape="3895.20,1200.00 3895.20,410.40"/>
        <lane id="-E12_1" index="1" speed="13.89" length="789.60" shape="3898.40,1200.00 3898.40,410.40"/>
    </edge>
    <edge id="-E13" from="J14" to="J10" priority="-1">
        <lane id="-E13_0" index="0" speed="13.89" length="879.20" shape="3904.80,-889.60 3904.80,-10.40"/>
        <lane id="-E13_1" index="1" speed="13.89" length="879.20" shape="3901.60,-889.60 3901.60,-10.40"/>
    </edge>
    <edge id="-E14" from="J9" to="J6" priority="-1">
        <lane id="-E14_0" index="0" speed="13.89" length="1879.20" shape="3089.60,-895.20 1210.40,-895.20"/>
        <lane id="-E14_1" index="1" speed="13.89" length="1879.20" shape="3089.60,-898.40 1210.40,-898.40"/>
    </edge>
    <edge id="-E15" from="J14" to="J9" priority="-1">
        <lane id="-E15_0" index="0" speed="13.89" length="779.20" shape="3889.60,-895.20 3110.40,-895.20"/>
        <lane id="-E15_1" index="1" speed="13.89" length="779.20" shape="3889.60,-898.40 3110.40,-898.40"/>
    </edge>
    <edge id="-E16" from="J15" to="J6" priority="-1">
        <lane id="-E16_0" index="0" speed="13.89" length="689.60" shape="1204.80,-1600.00 1204.80,-910.40"/>
        <lane id="-E16_1" index="1" speed="13.89" length="689.60" shape="1201.60,-1600.00 1201.60,-910.40"/>
    </edge>
    <edge id="-E17" from="J16" to="J9" priority="-1">
        <lane id="-E17_0" index="0" speed="13.89" length="689.60" shape="3104.80,-1600.00 3104.80,-910.40"/>
        <lane id="-E17_1" index="1" speed="13.89" length="689.60" shape="3101.60,-1600.00 3101.60,-910.40"/>
    </edge>
    <edge id="-E18" from="J17" to="J14" priority="-1">
        <lane id="-E18_0" index="0" speed="13.89" length="689.60" shape="3904.80,-1600.00 3904.80,-910.40"/>
        <lane id="-E18_1" index="1" speed="13.89" length="689.60" shape="3901.60,-1600.00 3901.60,-910.40"/>
    </edge>
    <edge id="-E2" from="J3" to="J1" priority="-1">
        <lane id="-E2_0" index="0" speed="13.89" length="389.60" shape="104.80,-400.00 104.80,-10.40"/>
        <lane id="-E2_1" index="1" speed="13.89" length="389.60" shape="101.60,-400.00 101.60,-10.40"/>
    </edge>
    <edge id="-E3" from="J4" to="J1" priority="-1">
        <lane id="-E3_0" index="0" speed="13.89" length="1079.20" shape="1189.60,4.80 110.40,4.80"/>
        <lane id="-E3_1" index="1" speed="13.89" length="1079.20" shape="1189.60,1.60 110.40,1.60"/>
    </edge>
    <edge id="-E4" from="J5" to="J4" priority="-1">
        <lane id="-E4_0" index="0" speed="13.89" length="789.60" shape="1195.20,800.00 1195.20,10.40"/>
        <lane id="-E4_1" index="1" speed="13.89" length="789.60" shape="1198.40,800.00 1198.40,10.40"/>
    </edge>
    <edge id="-E5" from="J6" to="J4" priority="-1">
        <lane id="-E5_0" index="0" speed="13.89" length="879.20" shape="1204.80,-889.60 1204.80,-10.40"/>
        <lane id="-E5_1" index="1" speed="13.89" length="879.20" shape="1201.60,-889.60 1201.60,-10.40"/>
    </edge>
    <edge id="-E6" from="J7" to="J4" priority="-1">
        <lane id="-E6_0" index="0" speed="13.89" length="1879.20" shape="3089.60,4.80 1210.40,4.80"/>
        <lane id="-E6_1" index="1" speed="13.89" length="1879.20" shape="3089.60,1.60 1210.40,1.60"/>
    </edge>
    <edge id="-E7" from="J8" to="J7" priority="-1">
        <lane id="-E7_0" index="0" speed="13.89" length="789.60" shape="3095.20,800.00 3095.20,10.40"/>
        <lane id="-E7_1" index="1" speed="13.89" length="789.60" shape="3098.40,800.00 3098.40,10.40"/>
    </edge>
    <edge id="-E8" from="J9" to="J7" priority="-1">
        <lane id="-E8_0" index="0" speed="13.89" length="879.20" shape="3104.80,-889.60 3104.80,-10.40"/>
        <lane id="-E8_1" index="1" speed="13.89" length="879.20" shape="3101.60,-889.60 3101.60,-10.40"/>
    </edge>
    <edge id="-E9" from="J10" to="J7" priority="-1">
        <lane id="-E9_0" index="0" speed="13.89" length="779.20" shape="3889.60,4.80 3110.40,4.80"/>
        <lane id="-E9_1" index="1" speed="13.89" length="779.20" shape="3889.60,1.60 3110.40,1.60"/>
    </edge>
    <edge id="E0" from="J0" to="J1" priority="-1">
        <lane id="E0_0" index="0" speed="13.89" length="189.60" shape="-100.00,-4.80 89.60,-4.80"/>
        <lane id="E0_1" index="1" speed="13.89" length="189.60" shape="-100.00,-1.60 89.60,-1.60"/>
    </edge>
    <edge id="E1" from="J1" to="J2" priority="-1">
        <lane id="E1_0" index="0" speed="13.89" length="389.60" shape="104.80,10.40 104.80,400.00"/>
        <lane id="E1_1" index="1" speed="13.89" length="389.60" shape="101.60,10.40 101.60,400.00"/>
    </edge>
    <edge id="E10" from="J10" to="J11" priority="-1">
        <lane id="E10_0" index="0" speed="13.89" length="379.20" shape="3904.80,10.40 3904.80,389.60"/>
        <lane id="E10_1" index="1" speed="13.89" length="379.20" shape="3901.60,10.40 3901.60,389.60"/>
    </edge>
    <edge id="E11" from="J11" to="J12" priority="-1">
        <lane id="E11_0" index="0" speed="13.89" length="789.60" shape="3910.40,395.20 4700.00,395.20"/>
        <lane id="E11_1" index="1" speed="13.89" length="789.60" shape="3910.40,398.40 4700.00,398.40"/>
    </edge>
    <edge id="E12" from="J11" to="J13" priority="-1">
        <lane id="E12_0" index="0" speed="13.89" length="789.60" shape="3904.80,410.40 3904.80,1200.00"/>
        <lane id="E12_1" index="1" speed="13.89" length="789.60" shape="3901.60,410.40 3901.60,1200.00"/>
    </edge>
    <edge id="E13" from="J10" to="J14" priority="-1">
        <lane id="E13_0" index="0" speed="13.89" length="879.20" shape="3895.20,-10.40 3895.20,-889.60"/>
        <lane id="E13_1" index="1" speed="13.89" length="879.20" shape="3898.40,-10.40 3898.40,-889.60"/>
    </edge>
    <edge id="E14" from="J6" to="J9" priority="-1">
        <lane id="E14_0" index="0" speed="13.89" length="1879.20" shape="1210.40,-904.80 3089.60,-904.80"/>
        <lane id="E14_1" index="1" speed="13.89" length="1879.20" shape="1210.40,-901.60 3089.60,-901.60"/>
    </edge>
    <edge id="E15" from="J9" to="J14" priority="-1">
        <lane id="E15_0" index="0" speed="13.89" length="779.20" shape="3110.40,-904.80 3889.60,-904.80"/>
        <lane id="E15_1" index="1" speed="13.89" length="779.20" shape="3110.40,-901.60 3889.60,-901.60"/>
    </edge>
    <edge id="E16" from="J6" to="J15" priority="-1">
        <lane id="E16_0" index="0" speed="13.89" length="689.60" shape="1195.20,-910.40 1195.20,-1600.00"/>
        <lane id="E16_1" index="1" speed="13.89" length="689.60" shape="1198.40,-910.40 1198.40,-1600.00"/>
    </edge>
    <edge id="E17" from="J9" to="J16" priority="-1">
        <lane id="E17_0" index="0" speed="13.89" length="689.60" shape="3095.20,-910.40 3095.20,-1600.00"/>
        <lane id="E17_1" index="1" speed="13.89" length="689.60" shape="3098.40,-910.40 3098.40,-1600.00"/>
    </edge>
    <edge id="E18" from="J14" to="J17" priority="-1">
        <lane id="E18_0" index="0" speed="13.89" length="689.60" shape="3895.20,-910.40 3895.20,-1600.00"/>
        <lane id="E18_1" index="1" speed="13.89" length="689.60" shape="3898.40,-910.40 3898.40,-1600.00"/>
    </edge>
    <edge id="E2" from="J1" to="J3" priority="-1">
        <lane id="E2_0" index="0" speed="13.89" length="389.60" shape="95.20,-10.40 95.20,-400.00"/>
        <lane id="E2_1" index="1" speed="13.89" length="389.60" shape="98.40,-10.40 98.40,-400.00"/>
    </edge>
    <edge id="E3" from="J1" to="J4" priority="-1">
        <lane id="E3_0" index="0" speed="13.89" length="1079.20" shape="110.40,-4.80 1189.60,-4.80"/>
        <lane id="E3_1" index="1" speed="13.89" length="1079.20" shape="110.40,-1.60 1189.60,-1.60"/>
    </edge>
    <edge id="E4" from="J4" to="J5" priority="-1">
        <lane id="E4_0" index="0" speed="13.89" length="789.60" shape="1204.80,10.40 1204.80,800.00"/>
        <lane id="E4_1" index="1" speed="13.89" length="789.60" shape="1201.60,10.40 1201.60,800.00"/>
    </edge>
    <edge id="E5" from="J4" to="J6" priority="-1">
        <lane id="E5_0" index="0" speed="13.89" length="879.20" shape="1195.20,-10.40 1195.20,-889.60"/>
        <lane id="E5_1" index="1" speed="13.89" length="879.20" shape="1198.40,-10.40 1198.40,-889.60"/>
    </edge>
    <edge id="E6" from="J4" to="J7" priority="-1">
        <lane id="E6_0" index="0" speed="13.89" length="1879.20" shape="1210.40,-4.80 3089.60,-4.80"/>
        <lane id="E6_1" index="1" speed="13.89" length="1879.20" shape="1210.40,-1.60 3089.60,-1.60"/>